
#######################################################################
#
#                 Cambridge Crystallographic Data Centre
#                                CCDC 
#
#######################################################################
#
# If this CIF has been generated from an entry in the Cambridge 
# Structural Database, then it will include bibliographic, chemical, 
# crystal, experimental, refinement or atomic coordinate data resulting 
# from the CCDC's data processing and validation procedures.
#
#######################################################################

data_2
_symmetry_cell_setting           monoclinic
_symmetry_space_group_name_H-M   'P 21/n'
_symmetry_Int_Tables_number      14
_space_group_name_Hall           '-P 2yn'
loop_
_symmetry_equiv_pos_site_id
_symmetry_equiv_pos_as_xyz
1 x,y,z
2 1/2-x,1/2+y,1/2-z
3 -x,-y,-z
4 1/2+x,1/2-y,1/2+z
_cell_length_a                   11.148
_cell_length_b                   15.318
_cell_length_c                   14.587
_cell_angle_alpha                90
_cell_angle_beta                 96.92
_cell_angle_gamma                90
_cell_volume                     2472.8
loop_
_atom_site_label
_atom_site_type_symbol
_atom_site_fract_x
_atom_site_fract_y
_atom_site_fract_z
Cu1 Cu 0 0 0
S1 S 0.103942 -0.000522264 -0.125891
S2 S -0.133996 -0.0987732 -0.0681593
N1 N 0.0772334 -0.0949868 -0.361306
N2 N -0.195856 -0.221571 -0.287001
C1 C 0.017506 -0.0714849 -0.197917
C2 C 0.0511802 -0.0853249 -0.288727
C3 C -0.0818844 -0.112678 -0.174024
C4 C -0.146474 -0.172804 -0.237211
S1 S -0.103942 0.000522264 0.125891
S2 S 0.133996 0.0987732 0.0681593
N1 N -0.0772334 0.0949868 0.361306
N2 N 0.195856 0.221571 0.287001
C1 C -0.017506 0.0714849 0.197917
C2 C -0.0511802 0.0853249 0.288727
C3 C 0.0818844 0.112678 0.174024
C4 C 0.146474 0.172804 0.237211
Cu1 Cu 0 0 1
S1 S 0.103942 -0.000522264 0.874109
S2 S -0.133996 -0.0987732 0.931841
N1 N 0.0772334 -0.0949868 0.638694
N2 N -0.195856 -0.221571 0.712999
C1 C 0.017506 -0.0714849 0.802083
C2 C 0.0511802 -0.0853249 0.711273
C3 C -0.0818844 -0.112678 0.825976
C4 C -0.146474 -0.172804 0.762789
S1 S -0.103942 0.000522264 1.12589
S2 S 0.133996 0.0987732 1.06816
N1 N -0.0772334 0.0949868 1.36131
N2 N 0.195856 0.221571 1.287
C1 C -0.017506 0.0714849 1.19792
C2 C -0.0511802 0.0853249 1.28873
C3 C 0.0818844 0.112678 1.17402
C4 C 0.146474 0.172804 1.23721
Cu1 Cu 0 1 0
S1 S 0.103942 0.999478 -0.125891
S2 S -0.133996 0.901227 -0.0681593
N1 N 0.0772334 0.905013 -0.361306
N2 N -0.195856 0.778429 -0.287001
C1 C 0.017506 0.928515 -0.197917
C2 C 0.0511802 0.914675 -0.288727
C3 C -0.0818844 0.887322 -0.174024
C4 C -0.146474 0.827196 -0.237211
S1 S -0.103942 1.00052 0.125891
S2 S 0.133996 1.09877 0.0681593
N1 N -0.0772334 1.09499 0.361306
N2 N 0.195856 1.22157 0.287001
C1 C -0.017506 1.07148 0.197917
C2 C -0.0511802 1.08532 0.288727
C3 C 0.0818844 1.11268 0.174024
C4 C 0.146474 1.1728 0.237211
Cu1 Cu 0 1 1
S1 S 0.103942 0.999478 0.874109
S2 S -0.133996 0.901227 0.931841
N1 N 0.0772334 0.905013 0.638694
N2 N -0.195856 0.778429 0.712999
C1 C 0.017506 0.928515 0.802083
C2 C 0.0511802 0.914675 0.711273
C3 C -0.0818844 0.887322 0.825976
C4 C -0.146474 0.827196 0.762789
S1 S -0.103942 1.00052 1.12589
S2 S 0.133996 1.09877 1.06816
N1 N -0.0772334 1.09499 1.36131
N2 N 0.195856 1.22157 1.287
C1 C -0.017506 1.07148 1.19792
C2 C -0.0511802 1.08532 1.28873
C3 C 0.0818844 1.11268 1.17402
C4 C 0.146474 1.1728 1.23721
Cu1 Cu 1 0 0
S1 S 1.10394 -0.000522264 -0.125891
S2 S 0.866004 -0.0987732 -0.0681593
N1 N 1.07723 -0.0949868 -0.361306
N2 N 0.804144 -0.221571 -0.287001
C1 C 1.01751 -0.0714849 -0.197917
C2 C 1.05118 -0.0853249 -0.288727
C3 C 0.918116 -0.112678 -0.174024
C4 C 0.853526 -0.172804 -0.237211
S1 S 0.896058 0.000522264 0.125891
S2 S 1.134 0.0987732 0.0681593
N1 N 0.922767 0.0949868 0.361306
N2 N 1.19586 0.221571 0.287001
C1 C 0.982494 0.0714849 0.197917
C2 C 0.94882 0.0853249 0.288727
C3 C 1.08188 0.112678 0.174024
C4 C 1.14647 0.172804 0.237211
Cu1 Cu 1 0 1
S1 S 1.10394 -0.000522264 0.874109
S2 S 0.866004 -0.0987732 0.931841
N1 N 1.07723 -0.0949868 0.638694
N2 N 0.804144 -0.221571 0.712999
C1 C 1.01751 -0.0714849 0.802083
C2 C 1.05118 -0.0853249 0.711273
C3 C 0.918116 -0.112678 0.825976
C4 C 0.853526 -0.172804 0.762789
S1 S 0.896058 0.000522264 1.12589
S2 S 1.134 0.0987732 1.06816
N1 N 0.922767 0.0949868 1.36131
N2 N 1.19586 0.221571 1.287
C1 C 0.982494 0.0714849 1.19792
C2 C 0.94882 0.0853249 1.28873
C3 C 1.08188 0.112678 1.17402
C4 C 1.14647 0.172804 1.23721
Cu1 Cu 1 1 0
S1 S 1.10394 0.999478 -0.125891
S2 S 0.866004 0.901227 -0.0681593
N1 N 1.07723 0.905013 -0.361306
N2 N 0.804144 0.778429 -0.287001
C1 C 1.01751 0.928515 -0.197917
C2 C 1.05118 0.914675 -0.288727
C3 C 0.918116 0.887322 -0.174024
C4 C 0.853526 0.827196 -0.237211
S1 S 0.896058 1.00052 0.125891
S2 S 1.134 1.09877 0.0681593
N1 N 0.922767 1.09499 0.361306
N2 N 1.19586 1.22157 0.287001
C1 C 0.982494 1.07148 0.197917
C2 C 0.94882 1.08532 0.288727
C3 C 1.08188 1.11268 0.174024
C4 C 1.14647 1.1728 0.237211
Cu1 Cu 1 1 1
S1 S 1.10394 0.999478 0.874109
S2 S 0.866004 0.901227 0.931841
N1 N 1.07723 0.905013 0.638694
N2 N 0.804144 0.778429 0.712999
C1 C 1.01751 0.928515 0.802083
C2 C 1.05118 0.914675 0.711273
C3 C 0.918116 0.887322 0.825976
C4 C 0.853526 0.827196 0.762789
S1 S 0.896058 1.00052 1.12589
S2 S 1.134 1.09877 1.06816
N1 N 0.922767 1.09499 1.36131
N2 N 1.19586 1.22157 1.287
C1 C 0.982494 1.07148 1.19792
C2 C 0.94882 1.08532 1.28873
C3 C 1.08188 1.11268 1.17402
C4 C 1.14647 1.1728 1.23721
Cu1 Cu 0.5 0.5 0.5
S1 S 0.396058 0.499478 0.625891
S2 S 0.633996 0.401227 0.568159
N1 N 0.422767 0.405013 0.861306
N2 N 0.695856 0.278429 0.787001
C1 C 0.482494 0.428515 0.697917
C2 C 0.44882 0.414675 0.788727
C3 C 0.581884 0.387322 0.674024
C4 C 0.646474 0.327196 0.737211
S1 S 0.603942 0.500522 0.374109
S2 S 0.366004 0.598773 0.431841
N1 N 0.577233 0.594987 0.138694
N2 N 0.304144 0.721571 0.212999
C1 C 0.517506 0.571485 0.302083
C2 C 0.55118 0.585325 0.211273
C3 C 0.418116 0.612678 0.325976
C4 C 0.353526 0.672804 0.262789
Cu1 Cu 4.8233e-005 0 1.4417e-005
S1 S 0.1039 -0.000522264 -0.125876
S2 S -0.133959 -0.0987732 -0.0682139
N1 N 0.0771919 -0.0949868 -0.361292
N2 N -0.195897 -0.221571 -0.286986
C1 C 0.0174646 -0.0714849 -0.197903
C2 C 0.0512284 -0.0853249 -0.288713
C3 C -0.0819258 -0.112678 -0.174009
C4 C -0.146516 -0.172804 -0.237196
S1 S -0.103904 0.000522264 0.125836
S2 S 0.133955 0.0987732 0.0681737
N1 N -0.0771852 0.0949868 0.361321
N2 N 0.195904 0.221571 0.287015
C1 C -0.0174687 0.0714849 0.197863
C2 C -0.0512326 0.0853249 0.288673
C3 C 0.0819217 0.112678 0.173969
C4 C 0.146523 0.172804 0.237225
Cu1 Cu 4.8233e-005 0 1.00001
S1 S 0.1039 -0.000522264 0.874124
S2 S -0.133959 -0.0987732 0.931786
N1 N 0.0771919 -0.0949868 0.638708
N2 N -0.195897 -0.221571 0.713014
C1 C 0.0174646 -0.0714849 0.802097
C2 C 0.0512284 -0.0853249 0.711287
C3 C -0.0819258 -0.112678 0.825991
C4 C -0.146516 -0.172804 0.762804
S1 S -0.103904 0.000522264 1.12584
S2 S 0.133955 0.0987732 1.06817
N1 N -0.0771852 0.0949868 1.36132
N2 N 0.195904 0.221571 1.28702
C1 C -0.0174687 0.0714849 1.19786
C2 C -0.0512326 0.0853249 1.28867
C3 C 0.0819217 0.112678 1.17397
C4 C 0.146523 0.172804 1.23723
Cu1 Cu 4.8233e-005 1 1.4417e-005
S1 S 0.1039 0.999478 -0.125876
S2 S -0.133959 0.901227 -0.0682139
N1 N 0.0771919 0.905013 -0.361292
N2 N -0.195897 0.778429 -0.286986
C1 C 0.0174646 0.928515 -0.197903
C2 C 0.0512284 0.914675 -0.288713
C3 C -0.0819258 0.887322 -0.174009
C4 C -0.146516 0.827196 -0.237196
S1 S -0.103904 1.00052 0.125836
S2 S 0.133955 1.09877 0.0681737
N1 N -0.0771852 1.09499 0.361321
N2 N 0.195904 1.22157 0.287015
C1 C -0.0174687 1.07148 0.197863
C2 C -0.0512326 1.08532 0.288673
C3 C 0.0819217 1.11268 0.173969
C4 C 0.146523 1.1728 0.237225
Cu1 Cu 4.8233e-005 1 1.00001
S1 S 0.1039 0.999478 0.874124
S2 S -0.133959 0.901227 0.931786
N1 N 0.0771919 0.905013 0.638708
N2 N -0.195897 0.778429 0.713014
C1 C 0.0174646 0.928515 0.802097
C2 C 0.0512284 0.914675 0.711287
C3 C -0.0819258 0.887322 0.825991
C4 C -0.146516 0.827196 0.762804
S1 S -0.103904 1.00052 1.12584
S2 S 0.133955 1.09877 1.06817
N1 N -0.0771852 1.09499 1.36132
N2 N 0.195904 1.22157 1.28702
C1 C -0.0174687 1.07148 1.19786
C2 C -0.0512326 1.08532 1.28867
C3 C 0.0819217 1.11268 1.17397
C4 C 0.146523 1.1728 1.23723
Cu1 Cu 1.00005 0 1.4417e-005
S1 S 1.1039 -0.000522264 -0.125876
S2 S 0.866041 -0.0987732 -0.0682139
N1 N 1.07719 -0.0949868 -0.361292
N2 N 0.804103 -0.221571 -0.286986
C1 C 1.01746 -0.0714849 -0.197903
C2 C 1.05123 -0.0853249 -0.288713
C3 C 0.918074 -0.112678 -0.174009
C4 C 0.853484 -0.172804 -0.237196
S1 S 0.896096 0.000522264 0.125836
S2 S 1.13395 0.0987732 0.0681737
N1 N 0.922815 0.0949868 0.361321
N2 N 1.1959 0.221571 0.287015
C1 C 0.982531 0.0714849 0.197863
C2 C 0.948767 0.0853249 0.288673
C3 C 1.08192 0.112678 0.173969
C4 C 1.14652 0.172804 0.237225
Cu1 Cu 1.00005 0 1.00001
S1 S 1.1039 -0.000522264 0.874124
S2 S 0.866041 -0.0987732 0.931786
N1 N 1.07719 -0.0949868 0.638708
N2 N 0.804103 -0.221571 0.713014
C1 C 1.01746 -0.0714849 0.802097
C2 C 1.05123 -0.0853249 0.711287
C3 C 0.918074 -0.112678 0.825991
C4 C 0.853484 -0.172804 0.762804
S1 S 0.896096 0.000522264 1.12584
S2 S 1.13395 0.0987732 1.06817
N1 N 0.922815 0.0949868 1.36132
N2 N 1.1959 0.221571 1.28702
C1 C 0.982531 0.0714849 1.19786
C2 C 0.948767 0.0853249 1.28867
C3 C 1.08192 0.112678 1.17397
C4 C 1.14652 0.172804 1.23723
Cu1 Cu 1.00005 1 1.4417e-005
S1 S 1.1039 0.999478 -0.125876
S2 S 0.866041 0.901227 -0.0682139
N1 N 1.07719 0.905013 -0.361292
N2 N 0.804103 0.778429 -0.286986
C1 C 1.01746 0.928515 -0.197903
C2 C 1.05123 0.914675 -0.288713
C3 C 0.918074 0.887322 -0.174009
C4 C 0.853484 0.827196 -0.237196
S1 S 0.896096 1.00052 0.125836
S2 S 1.13395 1.09877 0.0681737
N1 N 0.922815 1.09499 0.361321
N2 N 1.1959 1.22157 0.287015
C1 C 0.982531 1.07148 0.197863
C2 C 0.948767 1.08532 0.288673
C3 C 1.08192 1.11268 0.173969
C4 C 1.14652 1.1728 0.237225
Cu1 Cu 1.00005 1 1.00001
S1 S 1.1039 0.999478 0.874124
S2 S 0.866041 0.901227 0.931786
N1 N 1.07719 0.905013 0.638708
N2 N 0.804103 0.778429 0.713014
C1 C 1.01746 0.928515 0.802097
C2 C 1.05123 0.914675 0.711287
C3 C 0.918074 0.887322 0.825991
C4 C 0.853484 0.827196 0.762804
S1 S 0.896096 1.00052 1.12584
S2 S 1.13395 1.09877 1.06817
N1 N 0.922815 1.09499 1.36132
N2 N 1.1959 1.22157 1.28702
C1 C 0.982531 1.07148 1.19786
C2 C 0.948767 1.08532 1.28867
C3 C 1.08192 1.11268 1.17397
C4 C 1.14652 1.1728 1.23723
Cu1 Cu 0.499952 0.5 0.499986
S1 S 0.3961 0.499478 0.625876
S2 S 0.633959 0.401227 0.568214
N1 N 0.422808 0.405013 0.861292
N2 N 0.695897 0.278429 0.786986
C1 C 0.482535 0.428515 0.697903
C2 C 0.448772 0.414675 0.788713
C3 C 0.581926 0.387322 0.674009
C4 C 0.646516 0.327196 0.737196
S1 S 0.603904 0.500522 0.374164
S2 S 0.366045 0.598773 0.431826
N1 N 0.577185 0.594987 0.138679
N2 N 0.304096 0.721571 0.212985
C1 C 0.517469 0.571485 0.302137
C2 C 0.551233 0.585325 0.211327
C3 C 0.418078 0.612678 0.326031
C4 C 0.353477 0.672804 0.262775
Cu1 Cu 0 4.994e-006 0
S1 S 0.103942 -0.00051727 -0.125891
S2 S -0.133996 -0.0987682 -0.0681593
N1 N 0.0772334 -0.0949818 -0.361306
N2 N -0.195856 -0.221566 -0.287001
C1 C 0.017506 -0.0714799 -0.197917
C2 C 0.0511802 -0.0853199 -0.288727
C3 C -0.0818844 -0.112673 -0.174024
C4 C -0.146474 -0.172799 -0.237211
S1 S -0.103942 0.000527258 0.125891
S2 S 0.133996 0.0987782 0.0681593
N1 N -0.0772334 0.0949918 0.361306
N2 N 0.195856 0.221575 0.287001
C1 C -0.017506 0.0714899 0.197917
C2 C -0.0511802 0.0853299 0.288727
C3 C 0.0818844 0.112683 0.174024
C4 C 0.146474 0.172809 0.237211
Cu1 Cu 0 4.994e-006 1
S1 S 0.103942 -0.00051727 0.874109
S2 S -0.133996 -0.0987682 0.931841
N1 N 0.0772334 -0.0949818 0.638694
N2 N -0.195856 -0.221566 0.712999
C1 C 0.017506 -0.0714799 0.802083
C2 C 0.0511802 -0.0853199 0.711273
C3 C -0.0818844 -0.112673 0.825976
C4 C -0.146474 -0.172799 0.762789
S1 S -0.103942 0.000527258 1.12589
S2 S 0.133996 0.0987782 1.06816
N1 N -0.0772334 0.0949918 1.36131
N2 N 0.195856 0.221575 1.287
C1 C -0.017506 0.0714899 1.19792
C2 C -0.0511802 0.0853299 1.28873
C3 C 0.0818844 0.112683 1.17402
C4 C 0.146474 0.172809 1.23721
Cu1 Cu 0 1 0
S1 S 0.103942 0.999483 -0.125891
S2 S -0.133996 0.901232 -0.0681593
N1 N 0.0772334 0.905018 -0.361306
N2 N -0.195856 0.778434 -0.287001
C1 C 0.017506 0.92852 -0.197917
C2 C 0.0511802 0.91468 -0.288727
C3 C -0.0818844 0.887327 -0.174024
C4 C -0.146474 0.827201 -0.237211
S1 S -0.103942 1.00053 0.125891
S2 S 0.133996 1.09878 0.0681593
N1 N -0.0772334 1.09499 0.361306
N2 N 0.195856 1.22158 0.287001
C1 C -0.017506 1.07149 0.197917
C2 C -0.0511802 1.08533 0.288727
C3 C 0.0818844 1.11268 0.174024
C4 C 0.146474 1.17281 0.237211
Cu1 Cu 0 1 1
S1 S 0.103942 0.999483 0.874109
S2 S -0.133996 0.901232 0.931841
N1 N 0.0772334 0.905018 0.638694
N2 N -0.195856 0.778434 0.712999
C1 C 0.017506 0.92852 0.802083
C2 C 0.0511802 0.91468 0.711273
C3 C -0.0818844 0.887327 0.825976
C4 C -0.146474 0.827201 0.762789
S1 S -0.103942 1.00053 1.12589
S2 S 0.133996 1.09878 1.06816
N1 N -0.0772334 1.09499 1.36131
N2 N 0.195856 1.22158 1.287
C1 C -0.017506 1.07149 1.19792
C2 C -0.0511802 1.08533 1.28873
C3 C 0.0818844 1.11268 1.17402
C4 C 0.146474 1.17281 1.23721
Cu1 Cu 1 4.994e-006 0
S1 S 1.10394 -0.00051727 -0.125891
S2 S 0.866004 -0.0987682 -0.0681593
N1 N 1.07723 -0.0949818 -0.361306
N2 N 0.804144 -0.221566 -0.287001
C1 C 1.01751 -0.0714799 -0.197917
C2 C 1.05118 -0.0853199 -0.288727
C3 C 0.918116 -0.112673 -0.174024
C4 C 0.853526 -0.172799 -0.237211
S1 S 0.896058 0.000527258 0.125891
S2 S 1.134 0.0987782 0.0681593
N1 N 0.922767 0.0949918 0.361306
N2 N 1.19586 0.221575 0.287001
C1 C 0.982494 0.0714899 0.197917
C2 C 0.94882 0.0853299 0.288727
C3 C 1.08188 0.112683 0.174024
C4 C 1.14647 0.172809 0.237211
Cu1 Cu 1 4.994e-006 1
S1 S 1.10394 -0.00051727 0.874109
S2 S 0.866004 -0.0987682 0.931841
N1 N 1.07723 -0.0949818 0.638694
N2 N 0.804144 -0.221566 0.712999
C1 C 1.01751 -0.0714799 0.802083
C2 C 1.05118 -0.0853199 0.711273
C3 C 0.918116 -0.112673 0.825976
C4 C 0.853526 -0.172799 0.762789
S1 S 0.896058 0.000527258 1.12589
S2 S 1.134 0.0987782 1.06816
N1 N 0.922767 0.0949918 1.36131
N2 N 1.19586 0.221575 1.287
C1 C 0.982494 0.0714899 1.19792
C2 C 0.94882 0.0853299 1.28873
C3 C 1.08188 0.112683 1.17402
C4 C 1.14647 0.172809 1.23721
Cu1 Cu 1 1 0
S1 S 1.10394 0.999483 -0.125891
S2 S 0.866004 0.901232 -0.0681593
N1 N 1.07723 0.905018 -0.361306
N2 N 0.804144 0.778434 -0.287001
C1 C 1.01751 0.92852 -0.197917
C2 C 1.05118 0.91468 -0.288727
C3 C 0.918116 0.887327 -0.174024
C4 C 0.853526 0.827201 -0.237211
S1 S 0.896058 1.00053 0.125891
S2 S 1.134 1.09878 0.0681593
N1 N 0.922767 1.09499 0.361306
N2 N 1.19586 1.22158 0.287001
C1 C 0.982494 1.07149 0.197917
C2 C 0.94882 1.08533 0.288727
C3 C 1.08188 1.11268 0.174024
C4 C 1.14647 1.17281 0.237211
Cu1 Cu 1 1 1
S1 S 1.10394 0.999483 0.874109
S2 S 0.866004 0.901232 0.931841
N1 N 1.07723 0.905018 0.638694
N2 N 0.804144 0.778434 0.712999
C1 C 1.01751 0.92852 0.802083
C2 C 1.05118 0.91468 0.711273
C3 C 0.918116 0.887327 0.825976
C4 C 0.853526 0.827201 0.762789
S1 S 0.896058 1.00053 1.12589
S2 S 1.134 1.09878 1.06816
N1 N 0.922767 1.09499 1.36131
N2 N 1.19586 1.22158 1.287
C1 C 0.982494 1.07149 1.19792
C2 C 0.94882 1.08533 1.28873
C3 C 1.08188 1.11268 1.17402
C4 C 1.14647 1.17281 1.23721
Cu1 Cu 0.5 0.500005 0.5
S1 S 0.396058 0.499483 0.625891
S2 S 0.633996 0.401232 0.568159
N1 N 0.422767 0.405018 0.861306
N2 N 0.695856 0.278434 0.787001
C1 C 0.482494 0.42852 0.697917
C2 C 0.44882 0.41468 0.788727
C3 C 0.581884 0.387327 0.674024
C4 C 0.646474 0.327201 0.737211
S1 S 0.603942 0.500527 0.374109
S2 S 0.366004 0.598778 0.431841
N1 N 0.577233 0.594992 0.138694
N2 N 0.304144 0.721575 0.212999
C1 C 0.517506 0.57149 0.302083
C2 C 0.55118 0.58533 0.211273
C3 C 0.418116 0.612683 0.325976
C4 C 0.353526 0.672809 0.262789
Cu1 Cu 4.8233e-005 4.994e-006 1.4417e-005
S1 S 0.1039 -0.00051727 -0.125876
S2 S -0.133959 -0.0987682 -0.0682139
N1 N 0.0771919 -0.0949818 -0.361292
N2 N -0.195897 -0.221566 -0.286986
C1 C 0.0174646 -0.0714799 -0.197903
C2 C 0.0512284 -0.0853199 -0.288713
C3 C -0.0819258 -0.112673 -0.174009
C4 C -0.146516 -0.172799 -0.237196
S1 S -0.103904 0.000527258 0.125836
S2 S 0.133955 0.0987782 0.0681737
N1 N -0.0771852 0.0949918 0.361321
N2 N 0.195904 0.221575 0.287015
C1 C -0.0174687 0.0714899 0.197863
C2 C -0.0512326 0.0853299 0.288673
C3 C 0.0819217 0.112683 0.173969
C4 C 0.146523 0.172809 0.237225
Cu1 Cu 4.8233e-005 4.994e-006 1.00001
S1 S 0.1039 -0.00051727 0.874124
S2 S -0.133959 -0.0987682 0.931786
N1 N 0.0771919 -0.0949818 0.638708
N2 N -0.195897 -0.221566 0.713014
C1 C 0.0174646 -0.0714799 0.802097
C2 C 0.0512284 -0.0853199 0.711287
C3 C -0.0819258 -0.112673 0.825991
C4 C -0.146516 -0.172799 0.762804
S1 S -0.103904 0.000527258 1.12584
S2 S 0.133955 0.0987782 1.06817
N1 N -0.0771852 0.0949918 1.36132
N2 N 0.195904 0.221575 1.28702
C1 C -0.0174687 0.0714899 1.19786
C2 C -0.0512326 0.0853299 1.28867
C3 C 0.0819217 0.112683 1.17397
C4 C 0.146523 0.172809 1.23723
Cu1 Cu 4.8233e-005 1 1.4417e-005
S1 S 0.1039 0.999483 -0.125876
S2 S -0.133959 0.901232 -0.0682139
N1 N 0.0771919 0.905018 -0.361292
N2 N -0.195897 0.778434 -0.286986
C1 C 0.0174646 0.92852 -0.197903
C2 C 0.0512284 0.91468 -0.288713
C3 C -0.0819258 0.887327 -0.174009
C4 C -0.146516 0.827201 -0.237196
S1 S -0.103904 1.00053 0.125836
S2 S 0.133955 1.09878 0.0681737
N1 N -0.0771852 1.09499 0.361321
N2 N 0.195904 1.22158 0.287015
C1 C -0.0174687 1.07149 0.197863
C2 C -0.0512326 1.08533 0.288673
C3 C 0.0819217 1.11268 0.173969
C4 C 0.146523 1.17281 0.237225
Cu1 Cu 4.8233e-005 1 1.00001
S1 S 0.1039 0.999483 0.874124
S2 S -0.133959 0.901232 0.931786
N1 N 0.0771919 0.905018 0.638708
N2 N -0.195897 0.778434 0.713014
C1 C 0.0174646 0.92852 0.802097
C2 C 0.0512284 0.91468 0.711287
C3 C -0.0819258 0.887327 0.825991
C4 C -0.146516 0.827201 0.762804
S1 S -0.103904 1.00053 1.12584
S2 S 0.133955 1.09878 1.06817
N1 N -0.0771852 1.09499 1.36132
N2 N 0.195904 1.22158 1.28702
C1 C -0.0174687 1.07149 1.19786
C2 C -0.0512326 1.08533 1.28867
C3 C 0.0819217 1.11268 1.17397
C4 C 0.146523 1.17281 1.23723
Cu1 Cu 1.00005 4.994e-006 1.4417e-005
S1 S 1.1039 -0.00051727 -0.125876
S2 S 0.866041 -0.0987682 -0.0682139
N1 N 1.07719 -0.0949818 -0.361292
N2 N 0.804103 -0.221566 -0.286986
C1 C 1.01746 -0.0714799 -0.197903
C2 C 1.05123 -0.0853199 -0.288713
C3 C 0.918074 -0.112673 -0.174009
C4 C 0.853484 -0.172799 -0.237196
S1 S 0.896096 0.000527258 0.125836
S2 S 1.13395 0.0987782 0.0681737
N1 N 0.922815 0.0949918 0.361321
N2 N 1.1959 0.221575 0.287015
C1 C 0.982531 0.0714899 0.197863
C2 C 0.948767 0.0853299 0.288673
C3 C 1.08192 0.112683 0.173969
C4 C 1.14652 0.172809 0.237225
Cu1 Cu 1.00005 4.994e-006 1.00001
S1 S 1.1039 -0.00051727 0.874124
S2 S 0.866041 -0.0987682 0.931786
N1 N 1.07719 -0.0949818 0.638708
N2 N 0.804103 -0.221566 0.713014
C1 C 1.01746 -0.0714799 0.802097
C2 C 1.05123 -0.0853199 0.711287
C3 C 0.918074 -0.112673 0.825991
C4 C 0.853484 -0.172799 0.762804
S1 S 0.896096 0.000527258 1.12584
S2 S 1.13395 0.0987782 1.06817
N1 N 0.922815 0.0949918 1.36132
N2 N 1.1959 0.221575 1.28702
C1 C 0.982531 0.0714899 1.19786
C2 C 0.948767 0.0853299 1.28867
C3 C 1.08192 0.112683 1.17397
C4 C 1.14652 0.172809 1.23723
Cu1 Cu 1.00005 1 1.4417e-005
S1 S 1.1039 0.999483 -0.125876
S2 S 0.866041 0.901232 -0.0682139
N1 N 1.07719 0.905018 -0.361292
N2 N 0.804103 0.778434 -0.286986
C1 C 1.01746 0.92852 -0.197903
C2 C 1.05123 0.91468 -0.288713
C3 C 0.918074 0.887327 -0.174009
C4 C 0.853484 0.827201 -0.237196
S1 S 0.896096 1.00053 0.125836
S2 S 1.13395 1.09878 0.0681737
N1 N 0.922815 1.09499 0.361321
N2 N 1.1959 1.22158 0.287015
C1 C 0.982531 1.07149 0.197863
C2 C 0.948767 1.08533 0.288673
C3 C 1.08192 1.11268 0.173969
C4 C 1.14652 1.17281 0.237225
Cu1 Cu 1.00005 1 1.00001
S1 S 1.1039 0.999483 0.874124
S2 S 0.866041 0.901232 0.931786
N1 N 1.07719 0.905018 0.638708
N2 N 0.804103 0.778434 0.713014
C1 C 1.01746 0.92852 0.802097
C2 C 1.05123 0.91468 0.711287
C3 C 0.918074 0.887327 0.825991
C4 C 0.853484 0.827201 0.762804
S1 S 0.896096 1.00053 1.12584
S2 S 1.13395 1.09878 1.06817
N1 N 0.922815 1.09499 1.36132
N2 N 1.1959 1.22158 1.28702
C1 C 0.982531 1.07149 1.19786
C2 C 0.948767 1.08533 1.28867
C3 C 1.08192 1.11268 1.17397
C4 C 1.14652 1.17281 1.23723
Cu1 Cu 0.499952 0.500005 0.499986
S1 S 0.3961 0.499483 0.625876
S2 S 0.633959 0.401232 0.568214
N1 N 0.422808 0.405018 0.861292
N2 N 0.695897 0.278434 0.786986
C1 C 0.482535 0.42852 0.697903
C2 C 0.448772 0.41468 0.788713
C3 C 0.581926 0.387327 0.674009
C4 C 0.646516 0.327201 0.737196
S1 S 0.603904 0.500527 0.374164
S2 S 0.366045 0.598778 0.431826
N1 N 0.577185 0.594992 0.138679
N2 N 0.304096 0.721575 0.212985
C1 C 0.517469 0.57149 0.302137
C2 C 0.551233 0.58533 0.211327
C3 C 0.418078 0.612683 0.326031
C4 C 0.353477 0.672809 0.262775
Cu1 Cu -2.104e-006 0 0
S1 S 0.10394 -0.000522264 -0.125891
S2 S -0.133998 -0.0987732 -0.0681593
N1 N 0.0772313 -0.0949868 -0.361306
N2 N -0.195858 -0.221571 -0.287001
C1 C 0.0175039 -0.0714849 -0.197917
C2 C 0.0511781 -0.0853249 -0.288727
C3 C -0.0818865 -0.112678 -0.174024
C4 C -0.146477 -0.172804 -0.237211
S1 S -0.103944 0.000522264 0.125891
S2 S 0.133994 0.0987732 0.0681593
N1 N -0.0772355 0.0949868 0.361306
N2 N 0.195854 0.221571 0.287001
C1 C -0.0175081 0.0714849 0.197917
C2 C -0.0511823 0.0853249 0.288727
C3 C 0.0818823 0.112678 0.174024
C4 C 0.146472 0.172804 0.237211
Cu1 Cu -2.104e-006 0 1
S1 S 0.10394 -0.000522264 0.874109
S2 S -0.133998 -0.0987732 0.931841
N1 N 0.0772313 -0.0949868 0.638694
N2 N -0.195858 -0.221571 0.712999
C1 C 0.0175039 -0.0714849 0.802083
C2 C 0.0511781 -0.0853249 0.711273
C3 C -0.0818865 -0.112678 0.825976
C4 C -0.146477 -0.172804 0.762789
S1 S -0.103944 0.000522264 1.12589
S2 S 0.133994 0.0987732 1.06816
N1 N -0.0772355 0.0949868 1.36131
N2 N 0.195854 0.221571 1.287
C1 C -0.0175081 0.0714849 1.19792
C2 C -0.0511823 0.0853249 1.28873
C3 C 0.0818823 0.112678 1.17402
C4 C 0.146472 0.172804 1.23721
Cu1 Cu -2.104e-006 1 0
S1 S 0.10394 0.999478 -0.125891
S2 S -0.133998 0.901227 -0.0681593
N1 N 0.0772313 0.905013 -0.361306
N2 N -0.195858 0.778429 -0.287001
C1 C 0.0175039 0.928515 -0.197917
C2 C 0.0511781 0.914675 -0.288727
C3 C -0.0818865 0.887322 -0.174024
C4 C -0.146477 0.827196 -0.237211
S1 S -0.103944 1.00052 0.125891
S2 S 0.133994 1.09877 0.0681593
N1 N -0.0772355 1.09499 0.361306
N2 N 0.195854 1.22157 0.287001
C1 C -0.0175081 1.07148 0.197917
C2 C -0.0511823 1.08532 0.288727
C3 C 0.0818823 1.11268 0.174024
C4 C 0.146472 1.1728 0.237211
Cu1 Cu -2.104e-006 1 1
S1 S 0.10394 0.999478 0.874109
S2 S -0.133998 0.901227 0.931841
N1 N 0.0772313 0.905013 0.638694
N2 N -0.195858 0.778429 0.712999
C1 C 0.0175039 0.928515 0.802083
C2 C 0.0511781 0.914675 0.711273
C3 C -0.0818865 0.887322 0.825976
C4 C -0.146477 0.827196 0.762789
S1 S -0.103944 1.00052 1.12589
S2 S 0.133994 1.09877 1.06816
N1 N -0.0772355 1.09499 1.36131
N2 N 0.195854 1.22157 1.287
C1 C -0.0175081 1.07148 1.19792
C2 C -0.0511823 1.08532 1.28873
C3 C 0.0818823 1.11268 1.17402
C4 C 0.146472 1.1728 1.23721
Cu1 Cu 0.999998 0 0
S1 S 1.10394 -0.000522264 -0.125891
S2 S 0.866002 -0.0987732 -0.0681593
N1 N 1.07723 -0.0949868 -0.361306
N2 N 0.804142 -0.221571 -0.287001
C1 C 1.0175 -0.0714849 -0.197917
C2 C 1.05118 -0.0853249 -0.288727
C3 C 0.918114 -0.112678 -0.174024
C4 C 0.853523 -0.172804 -0.237211
S1 S 0.896056 0.000522264 0.125891
S2 S 1.13399 0.0987732 0.0681593
N1 N 0.922764 0.0949868 0.361306
N2 N 1.19585 0.221571 0.287001
C1 C 0.982492 0.0714849 0.197917
C2 C 0.948818 0.0853249 0.288727
C3 C 1.08188 0.112678 0.174024
C4 C 1.14647 0.172804 0.237211
Cu1 Cu 0.999998 0 1
S1 S 1.10394 -0.000522264 0.874109
S2 S 0.866002 -0.0987732 0.931841
N1 N 1.07723 -0.0949868 0.638694
N2 N 0.804142 -0.221571 0.712999
C1 C 1.0175 -0.0714849 0.802083
C2 C 1.05118 -0.0853249 0.711273
C3 C 0.918114 -0.112678 0.825976
C4 C 0.853523 -0.172804 0.762789
S1 S 0.896056 0.000522264 1.12589
S2 S 1.13399 0.0987732 1.06816
N1 N 0.922764 0.0949868 1.36131
N2 N 1.19585 0.221571 1.287
C1 C 0.982492 0.0714849 1.19792
C2 C 0.948818 0.0853249 1.28873
C3 C 1.08188 0.112678 1.17402
C4 C 1.14647 0.172804 1.23721
Cu1 Cu 0.999998 1 0
S1 S 1.10394 0.999478 -0.125891
S2 S 0.866002 0.901227 -0.0681593
N1 N 1.07723 0.905013 -0.361306
N2 N 0.804142 0.778429 -0.287001
C1 C 1.0175 0.928515 -0.197917
C2 C 1.05118 0.914675 -0.288727
C3 C 0.918114 0.887322 -0.174024
C4 C 0.853523 0.827196 -0.237211
S1 S 0.896056 1.00052 0.125891
S2 S 1.13399 1.09877 0.0681593
N1 N 0.922764 1.09499 0.361306
N2 N 1.19585 1.22157 0.287001
C1 C 0.982492 1.07148 0.197917
C2 C 0.948818 1.08532 0.288727
C3 C 1.08188 1.11268 0.174024
C4 C 1.14647 1.1728 0.237211
Cu1 Cu 0.999998 1 1
S1 S 1.10394 0.999478 0.874109
S2 S 0.866002 0.901227 0.931841
N1 N 1.07723 0.905013 0.638694
N2 N 0.804142 0.778429 0.712999
C1 C 1.0175 0.928515 0.802083
C2 C 1.05118 0.914675 0.711273
C3 C 0.918114 0.887322 0.825976
C4 C 0.853523 0.827196 0.762789
S1 S 0.896056 1.00052 1.12589
S2 S 1.13399 1.09877 1.06816
N1 N 0.922764 1.09499 1.36131
N2 N 1.19585 1.22157 1.287
C1 C 0.982492 1.07148 1.19792
C2 C 0.948818 1.08532 1.28873
C3 C 1.08188 1.11268 1.17402
C4 C 1.14647 1.1728 1.23721
Cu1 Cu 0.500002 0.5 0.5
S1 S 0.39606 0.499478 0.625891
S2 S 0.633998 0.401227 0.568159
N1 N 0.422769 0.405013 0.861306
N2 N 0.695858 0.278429 0.787001
C1 C 0.482496 0.428515 0.697917
C2 C 0.448822 0.414675 0.788727
C3 C 0.581886 0.387322 0.674024
C4 C 0.646477 0.327196 0.737211
S1 S 0.603944 0.500522 0.374109
S2 S 0.366006 0.598773 0.431841
N1 N 0.577236 0.594987 0.138694
N2 N 0.304146 0.721571 0.212999
C1 C 0.517508 0.571485 0.302083
C2 C 0.551182 0.585325 0.211273
C3 C 0.418118 0.612678 0.325976
C4 C 0.353528 0.672804 0.262789
Cu1 Cu 4.6129e-005 0 1.4417e-005
S1 S 0.103898 -0.000522264 -0.125876
S2 S -0.133961 -0.0987732 -0.0682139
N1 N 0.0771898 -0.0949868 -0.361292
N2 N -0.1959 -0.221571 -0.286986
C1 C 0.0174625 -0.0714849 -0.197903
C2 C 0.0512263 -0.0853249 -0.288713
C3 C -0.0819279 -0.112678 -0.174009
C4 C -0.146518 -0.172804 -0.237196
S1 S -0.103907 0.000522264 0.125836
S2 S 0.133952 0.0987732 0.0681737
N1 N -0.0771873 0.0949868 0.361321
N2 N 0.195902 0.221571 0.287015
C1 C -0.0174708 0.0714849 0.197863
C2 C -0.0512347 0.0853249 0.288673
C3 C 0.0819196 0.112678 0.173969
C4 C 0.146521 0.172804 0.237225
Cu1 Cu 4.6129e-005 0 1.00001
S1 S 0.103898 -0.000522264 0.874124
S2 S -0.133961 -0.0987732 0.931786
N1 N 0.0771898 -0.0949868 0.638708
N2 N -0.1959 -0.221571 0.713014
C1 C 0.0174625 -0.0714849 0.802097
C2 C 0.0512263 -0.0853249 0.711287
C3 C -0.0819279 -0.112678 0.825991
C4 C -0.146518 -0.172804 0.762804
S1 S -0.103907 0.000522264 1.12584
S2 S 0.133952 0.0987732 1.06817
N1 N -0.0771873 0.0949868 1.36132
N2 N 0.195902 0.221571 1.28702
C1 C -0.0174708 0.0714849 1.19786
C2 C -0.0512347 0.0853249 1.28867
C3 C 0.0819196 0.112678 1.17397
C4 C 0.146521 0.172804 1.23723
Cu1 Cu 4.6129e-005 1 1.4417e-005
S1 S 0.103898 0.999478 -0.125876
S2 S -0.133961 0.901227 -0.0682139
N1 N 0.0771898 0.905013 -0.361292
N2 N -0.1959 0.778429 -0.286986
C1 C 0.0174625 0.928515 -0.197903
C2 C 0.0512263 0.914675 -0.288713
C3 C -0.0819279 0.887322 -0.174009
C4 C -0.146518 0.827196 -0.237196
S1 S -0.103907 1.00052 0.125836
S2 S 0.133952 1.09877 0.0681737
N1 N -0.0771873 1.09499 0.361321
N2 N 0.195902 1.22157 0.287015
C1 C -0.0174708 1.07148 0.197863
C2 C -0.0512347 1.08532 0.288673
C3 C 0.0819196 1.11268 0.173969
C4 C 0.146521 1.1728 0.237225
Cu1 Cu 4.6129e-005 1 1.00001
S1 S 0.103898 0.999478 0.874124
S2 S -0.133961 0.901227 0.931786
N1 N 0.0771898 0.905013 0.638708
N2 N -0.1959 0.778429 0.713014
C1 C 0.0174625 0.928515 0.802097
C2 C 0.0512263 0.914675 0.711287
C3 C -0.0819279 0.887322 0.825991
C4 C -0.146518 0.827196 0.762804
S1 S -0.103907 1.00052 1.12584
S2 S 0.133952 1.09877 1.06817
N1 N -0.0771873 1.09499 1.36132
N2 N 0.195902 1.22157 1.28702
C1 C -0.0174708 1.07148 1.19786
C2 C -0.0512347 1.08532 1.28867
C3 C 0.0819196 1.11268 1.17397
C4 C 0.146521 1.1728 1.23723
Cu1 Cu 1.00005 0 1.4417e-005
S1 S 1.1039 -0.000522264 -0.125876
S2 S 0.866039 -0.0987732 -0.0682139
N1 N 1.07719 -0.0949868 -0.361292
N2 N 0.8041 -0.221571 -0.286986
C1 C 1.01746 -0.0714849 -0.197903
C2 C 1.05123 -0.0853249 -0.288713
C3 C 0.918072 -0.112678 -0.174009
C4 C 0.853482 -0.172804 -0.237196
S1 S 0.896093 0.000522264 0.125836
S2 S 1.13395 0.0987732 0.0681737
N1 N 0.922813 0.0949868 0.361321
N2 N 1.1959 0.221571 0.287015
C1 C 0.982529 0.0714849 0.197863
C2 C 0.948765 0.0853249 0.288673
C3 C 1.08192 0.112678 0.173969
C4 C 1.14652 0.172804 0.237225
Cu1 Cu 1.00005 0 1.00001
S1 S 1.1039 -0.000522264 0.874124
S2 S 0.866039 -0.0987732 0.931786
N1 N 1.07719 -0.0949868 0.638708
N2 N 0.8041 -0.221571 0.713014
C1 C 1.01746 -0.0714849 0.802097
C2 C 1.05123 -0.0853249 0.711287
C3 C 0.918072 -0.112678 0.825991
C4 C 0.853482 -0.172804 0.762804
S1 S 0.896093 0.000522264 1.12584
S2 S 1.13395 0.0987732 1.06817
N1 N 0.922813 0.0949868 1.36132
N2 N 1.1959 0.221571 1.28702
C1 C 0.982529 0.0714849 1.19786
C2 C 0.948765 0.0853249 1.28867
C3 C 1.08192 0.112678 1.17397
C4 C 1.14652 0.172804 1.23723
Cu1 Cu 1.00005 1 1.4417e-005
S1 S 1.1039 0.999478 -0.125876
S2 S 0.866039 0.901227 -0.0682139
N1 N 1.07719 0.905013 -0.361292
N2 N 0.8041 0.778429 -0.286986
C1 C 1.01746 0.928515 -0.197903
C2 C 1.05123 0.914675 -0.288713
C3 C 0.918072 0.887322 -0.174009
C4 C 0.853482 0.827196 -0.237196
S1 S 0.896093 1.00052 0.125836
S2 S 1.13395 1.09877 0.0681737
N1 N 0.922813 1.09499 0.361321
N2 N 1.1959 1.22157 0.287015
C1 C 0.982529 1.07148 0.197863
C2 C 0.948765 1.08532 0.288673
C3 C 1.08192 1.11268 0.173969
C4 C 1.14652 1.1728 0.237225
Cu1 Cu 1.00005 1 1.00001
S1 S 1.1039 0.999478 0.874124
S2 S 0.866039 0.901227 0.931786
N1 N 1.07719 0.905013 0.638708
N2 N 0.8041 0.778429 0.713014
C1 C 1.01746 0.928515 0.802097
C2 C 1.05123 0.914675 0.711287
C3 C 0.918072 0.887322 0.825991
C4 C 0.853482 0.827196 0.762804
S1 S 0.896093 1.00052 1.12584
S2 S 1.13395 1.09877 1.06817
N1 N 0.922813 1.09499 1.36132
N2 N 1.1959 1.22157 1.28702
C1 C 0.982529 1.07148 1.19786
C2 C 0.948765 1.08532 1.28867
C3 C 1.08192 1.11268 1.17397
C4 C 1.14652 1.1728 1.23723
Cu1 Cu 0.499954 0.5 0.499986
S1 S 0.396102 0.499478 0.625876
S2 S 0.633961 0.401227 0.568214
N1 N 0.42281 0.405013 0.861292
N2 N 0.6959 0.278429 0.786986
C1 C 0.482538 0.428515 0.697903
C2 C 0.448774 0.414675 0.788713
C3 C 0.581928 0.387322 0.674009
C4 C 0.646518 0.327196 0.737196
S1 S 0.603907 0.500522 0.374164
S2 S 0.366048 0.598773 0.431826
N1 N 0.577187 0.594987 0.138679
N2 N 0.304098 0.721571 0.212985
C1 C 0.517471 0.571485 0.302137
C2 C 0.551235 0.585325 0.211327
C3 C 0.41808 0.612678 0.326031
C4 C 0.353479 0.672804 0.262775
Cu1 Cu -2.104e-006 4.994e-006 0
S1 S 0.10394 -0.00051727 -0.125891
S2 S -0.133998 -0.0987682 -0.0681593
N1 N 0.0772313 -0.0949818 -0.361306
N2 N -0.195858 -0.221566 -0.287001
C1 C 0.0175039 -0.0714799 -0.197917
C2 C 0.0511781 -0.0853199 -0.288727
C3 C -0.0818865 -0.112673 -0.174024
C4 C -0.146477 -0.172799 -0.237211
S1 S -0.103944 0.000527258 0.125891
S2 S 0.133994 0.0987782 0.0681593
N1 N -0.0772355 0.0949918 0.361306
N2 N 0.195854 0.221575 0.287001
C1 C -0.0175081 0.0714899 0.197917
C2 C -0.0511823 0.0853299 0.288727
C3 C 0.0818823 0.112683 0.174024
C4 C 0.146472 0.172809 0.237211
Cu1 Cu -2.104e-006 4.994e-006 1
S1 S 0.10394 -0.00051727 0.874109
S2 S -0.133998 -0.0987682 0.931841
N1 N 0.0772313 -0.0949818 0.638694
N2 N -0.195858 -0.221566 0.712999
C1 C 0.0175039 -0.0714799 0.802083
C2 C 0.0511781 -0.0853199 0.711273
C3 C -0.0818865 -0.112673 0.825976
C4 C -0.146477 -0.172799 0.762789
S1 S -0.103944 0.000527258 1.12589
S2 S 0.133994 0.0987782 1.06816
N1 N -0.0772355 0.0949918 1.36131
N2 N 0.195854 0.221575 1.287
C1 C -0.0175081 0.0714899 1.19792
C2 C -0.0511823 0.0853299 1.28873
C3 C 0.0818823 0.112683 1.17402
C4 C 0.146472 0.172809 1.23721
Cu1 Cu -2.104e-006 1 0
S1 S 0.10394 0.999483 -0.125891
S2 S -0.133998 0.901232 -0.0681593
N1 N 0.0772313 0.905018 -0.361306
N2 N -0.195858 0.778434 -0.287001
C1 C 0.0175039 0.92852 -0.197917
C2 C 0.0511781 0.91468 -0.288727
C3 C -0.0818865 0.887327 -0.174024
C4 C -0.146477 0.827201 -0.237211
S1 S -0.103944 1.00053 0.125891
S2 S 0.133994 1.09878 0.0681593
N1 N -0.0772355 1.09499 0.361306
N2 N 0.195854 1.22158 0.287001
C1 C -0.0175081 1.07149 0.197917
C2 C -0.0511823 1.08533 0.288727
C3 C 0.0818823 1.11268 0.174024
C4 C 0.146472 1.17281 0.237211
Cu1 Cu -2.104e-006 1 1
S1 S 0.10394 0.999483 0.874109
S2 S -0.133998 0.901232 0.931841
N1 N 0.0772313 0.905018 0.638694
N2 N -0.195858 0.778434 0.712999
C1 C 0.0175039 0.92852 0.802083
C2 C 0.0511781 0.91468 0.711273
C3 C -0.0818865 0.887327 0.825976
C4 C -0.146477 0.827201 0.762789
S1 S -0.103944 1.00053 1.12589
S2 S 0.133994 1.09878 1.06816
N1 N -0.0772355 1.09499 1.36131
N2 N 0.195854 1.22158 1.287
C1 C -0.0175081 1.07149 1.19792
C2 C -0.0511823 1.08533 1.28873
C3 C 0.0818823 1.11268 1.17402
C4 C 0.146472 1.17281 1.23721
Cu1 Cu 0.999998 4.994e-006 0
S1 S 1.10394 -0.00051727 -0.125891
S2 S 0.866002 -0.0987682 -0.0681593
N1 N 1.07723 -0.0949818 -0.361306
N2 N 0.804142 -0.221566 -0.287001
C1 C 1.0175 -0.0714799 -0.197917
C2 C 1.05118 -0.0853199 -0.288727
C3 C 0.918114 -0.112673 -0.174024
C4 C 0.853523 -0.172799 -0.237211
S1 S 0.896056 0.000527258 0.125891
S2 S 1.13399 0.0987782 0.0681593
N1 N 0.922764 0.0949918 0.361306
N2 N 1.19585 0.221575 0.287001
C1 C 0.982492 0.0714899 0.197917
C2 C 0.948818 0.0853299 0.288727
C3 C 1.08188 0.112683 0.174024
C4 C 1.14647 0.172809 0.237211
Cu1 Cu 0.999998 4.994e-006 1
S1 S 1.10394 -0.00051727 0.874109
S2 S 0.866002 -0.0987682 0.931841
N1 N 1.07723 -0.0949818 0.638694
N2 N 0.804142 -0.221566 0.712999
C1 C 1.0175 -0.0714799 0.802083
C2 C 1.05118 -0.0853199 0.711273
C3 C 0.918114 -0.112673 0.825976
C4 C 0.853523 -0.172799 0.762789
S1 S 0.896056 0.000527258 1.12589
S2 S 1.13399 0.0987782 1.06816
N1 N 0.922764 0.0949918 1.36131
N2 N 1.19585 0.221575 1.287
C1 C 0.982492 0.0714899 1.19792
C2 C 0.948818 0.0853299 1.28873
C3 C 1.08188 0.112683 1.17402
C4 C 1.14647 0.172809 1.23721
Cu1 Cu 0.999998 1 0
S1 S 1.10394 0.999483 -0.125891
S2 S 0.866002 0.901232 -0.0681593
N1 N 1.07723 0.905018 -0.361306
N2 N 0.804142 0.778434 -0.287001
C1 C 1.0175 0.92852 -0.197917
C2 C 1.05118 0.91468 -0.288727
C3 C 0.918114 0.887327 -0.174024
C4 C 0.853523 0.827201 -0.237211
S1 S 0.896056 1.00053 0.125891
S2 S 1.13399 1.09878 0.0681593
N1 N 0.922764 1.09499 0.361306
N2 N 1.19585 1.22158 0.287001
C1 C 0.982492 1.07149 0.197917
C2 C 0.948818 1.08533 0.288727
C3 C 1.08188 1.11268 0.174024
C4 C 1.14647 1.17281 0.237211
Cu1 Cu 0.999998 1 1
S1 S 1.10394 0.999483 0.874109
S2 S 0.866002 0.901232 0.931841
N1 N 1.07723 0.905018 0.638694
N2 N 0.804142 0.778434 0.712999
C1 C 1.0175 0.92852 0.802083
C2 C 1.05118 0.91468 0.711273
C3 C 0.918114 0.887327 0.825976
C4 C 0.853523 0.827201 0.762789
S1 S 0.896056 1.00053 1.12589
S2 S 1.13399 1.09878 1.06816
N1 N 0.922764 1.09499 1.36131
N2 N 1.19585 1.22158 1.287
C1 C 0.982492 1.07149 1.19792
C2 C 0.948818 1.08533 1.28873
C3 C 1.08188 1.11268 1.17402
C4 C 1.14647 1.17281 1.23721
Cu1 Cu 0.500002 0.500005 0.5
S1 S 0.39606 0.499483 0.625891
S2 S 0.633998 0.401232 0.568159
N1 N 0.422769 0.405018 0.861306
N2 N 0.695858 0.278434 0.787001
C1 C 0.482496 0.42852 0.697917
C2 C 0.448822 0.41468 0.788727
C3 C 0.581886 0.387327 0.674024
C4 C 0.646477 0.327201 0.737211
S1 S 0.603944 0.500527 0.374109
S2 S 0.366006 0.598778 0.431841
N1 N 0.577236 0.594992 0.138694
N2 N 0.304146 0.721575 0.212999
C1 C 0.517508 0.57149 0.302083
C2 C 0.551182 0.58533 0.211273
C3 C 0.418118 0.612683 0.325976
C4 C 0.353528 0.672809 0.262789
Cu1 Cu 4.6129e-005 4.994e-006 1.4417e-005
S1 S 0.103898 -0.00051727 -0.125876
S2 S -0.133961 -0.0987682 -0.0682139
N1 N 0.0771898 -0.0949818 -0.361292
N2 N -0.1959 -0.221566 -0.286986
C1 C 0.0174625 -0.0714799 -0.197903
C2 C 0.0512263 -0.0853199 -0.288713
C3 C -0.0819279 -0.112673 -0.174009
C4 C -0.146518 -0.172799 -0.237196
S1 S -0.103907 0.000527258 0.125836
S2 S 0.133952 0.0987782 0.0681737
N1 N -0.0771873 0.0949918 0.361321
N2 N 0.195902 0.221575 0.287015
C1 C -0.0174708 0.0714899 0.197863
C2 C -0.0512347 0.0853299 0.288673
C3 C 0.0819196 0.112683 0.173969
C4 C 0.146521 0.172809 0.237225
Cu1 Cu 4.6129e-005 4.994e-006 1.00001
S1 S 0.103898 -0.00051727 0.874124
S2 S -0.133961 -0.0987682 0.931786
N1 N 0.0771898 -0.0949818 0.638708
N2 N -0.1959 -0.221566 0.713014
C1 C 0.0174625 -0.0714799 0.802097
C2 C 0.0512263 -0.0853199 0.711287
C3 C -0.0819279 -0.112673 0.825991
C4 C -0.146518 -0.172799 0.762804
S1 S -0.103907 0.000527258 1.12584
S2 S 0.133952 0.0987782 1.06817
N1 N -0.0771873 0.0949918 1.36132
N2 N 0.195902 0.221575 1.28702
C1 C -0.0174708 0.0714899 1.19786
C2 C -0.0512347 0.0853299 1.28867
C3 C 0.0819196 0.112683 1.17397
C4 C 0.146521 0.172809 1.23723
Cu1 Cu 4.6129e-005 1 1.4417e-005
S1 S 0.103898 0.999483 -0.125876
S2 S -0.133961 0.901232 -0.0682139
N1 N 0.0771898 0.905018 -0.361292
N2 N -0.1959 0.778434 -0.286986
C1 C 0.0174625 0.92852 -0.197903
C2 C 0.0512263 0.91468 -0.288713
C3 C -0.0819279 0.887327 -0.174009
C4 C -0.146518 0.827201 -0.237196
S1 S -0.103907 1.00053 0.125836
S2 S 0.133952 1.09878 0.0681737
N1 N -0.0771873 1.09499 0.361321
N2 N 0.195902 1.22158 0.287015
C1 C -0.0174708 1.07149 0.197863
C2 C -0.0512347 1.08533 0.288673
C3 C 0.0819196 1.11268 0.173969
C4 C 0.146521 1.17281 0.237225
Cu1 Cu 4.6129e-005 1 1.00001
S1 S 0.103898 0.999483 0.874124
S2 S -0.133961 0.901232 0.931786
N1 N 0.0771898 0.905018 0.638708
N2 N -0.1959 0.778434 0.713014
C1 C 0.0174625 0.92852 0.802097
C2 C 0.0512263 0.91468 0.711287
C3 C -0.0819279 0.887327 0.825991
C4 C -0.146518 0.827201 0.762804
S1 S -0.103907 1.00053 1.12584
S2 S 0.133952 1.09878 1.06817
N1 N -0.0771873 1.09499 1.36132
N2 N 0.195902 1.22158 1.28702
C1 C -0.0174708 1.07149 1.19786
C2 C -0.0512347 1.08533 1.28867
C3 C 0.0819196 1.11268 1.17397
C4 C 0.146521 1.17281 1.23723
Cu1 Cu 1.00005 4.994e-006 1.4417e-005
S1 S 1.1039 -0.00051727 -0.125876
S2 S 0.866039 -0.0987682 -0.0682139
N1 N 1.07719 -0.0949818 -0.361292
N2 N 0.8041 -0.221566 -0.286986
C1 C 1.01746 -0.0714799 -0.197903
C2 C 1.05123 -0.0853199 -0.288713
C3 C 0.918072 -0.112673 -0.174009
C4 C 0.853482 -0.172799 -0.237196
S1 S 0.896093 0.000527258 0.125836
S2 S 1.13395 0.0987782 0.0681737
N1 N 0.922813 0.0949918 0.361321
N2 N 1.1959 0.221575 0.287015
C1 C 0.982529 0.0714899 0.197863
C2 C 0.948765 0.0853299 0.288673
C3 C 1.08192 0.112683 0.173969
C4 C 1.14652 0.172809 0.237225
Cu1 Cu 1.00005 4.994e-006 1.00001
S1 S 1.1039 -0.00051727 0.874124
S2 S 0.866039 -0.0987682 0.931786
N1 N 1.07719 -0.0949818 0.638708
N2 N 0.8041 -0.221566 0.713014
C1 C 1.01746 -0.0714799 0.802097
C2 C 1.05123 -0.0853199 0.711287
C3 C 0.918072 -0.112673 0.825991
C4 C 0.853482 -0.172799 0.762804
S1 S 0.896093 0.000527258 1.12584
S2 S 1.13395 0.0987782 1.06817
N1 N 0.922813 0.0949918 1.36132
N2 N 1.1959 0.221575 1.28702
C1 C 0.982529 0.0714899 1.19786
C2 C 0.948765 0.0853299 1.28867
C3 C 1.08192 0.112683 1.17397
C4 C 1.14652 0.172809 1.23723
Cu1 Cu 1.00005 1 1.4417e-005
S1 S 1.1039 0.999483 -0.125876
S2 S 0.866039 0.901232 -0.0682139
N1 N 1.07719 0.905018 -0.361292
N2 N 0.8041 0.778434 -0.286986
C1 C 1.01746 0.92852 -0.197903
C2 C 1.05123 0.91468 -0.288713
C3 C 0.918072 0.887327 -0.174009
C4 C 0.853482 0.827201 -0.237196
S1 S 0.896093 1.00053 0.125836
S2 S 1.13395 1.09878 0.0681737
N1 N 0.922813 1.09499 0.361321
N2 N 1.1959 1.22158 0.287015
C1 C 0.982529 1.07149 0.197863
C2 C 0.948765 1.08533 0.288673
C3 C 1.08192 1.11268 0.173969
C4 C 1.14652 1.17281 0.237225
Cu1 Cu 1.00005 1 1.00001
S1 S 1.1039 0.999483 0.874124
S2 S 0.866039 0.901232 0.931786
N1 N 1.07719 0.905018 0.638708
N2 N 0.8041 0.778434 0.713014
C1 C 1.01746 0.92852 0.802097
C2 C 1.05123 0.91468 0.711287
C3 C 0.918072 0.887327 0.825991
C4 C 0.853482 0.827201 0.762804
S1 S 0.896093 1.00053 1.12584
S2 S 1.13395 1.09878 1.06817
N1 N 0.922813 1.09499 1.36132
N2 N 1.1959 1.22158 1.28702
C1 C 0.982529 1.07149 1.19786
C2 C 0.948765 1.08533 1.28867
C3 C 1.08192 1.11268 1.17397
C4 C 1.14652 1.17281 1.23723
Cu1 Cu 0.499954 0.500005 0.499986
S1 S 0.396102 0.499483 0.625876
S2 S 0.633961 0.401232 0.568214
N1 N 0.42281 0.405018 0.861292
N2 N 0.6959 0.278434 0.786986
C1 C 0.482538 0.42852 0.697903
C2 C 0.448774 0.41468 0.788713
C3 C 0.581928 0.387327 0.674009
C4 C 0.646518 0.327201 0.737196
S1 S 0.603907 0.500527 0.374164
S2 S 0.366048 0.598778 0.431826
N1 N 0.577187 0.594992 0.138679
N2 N 0.304098 0.721575 0.212985
C1 C 0.517471 0.57149 0.302137
C2 C 0.551235 0.58533 0.211327
C3 C 0.41808 0.612683 0.326031
C4 C 0.353479 0.672809 0.262775
Cu1 Cu 0.499973 0.500002 0.499973
S1 S 0.396121 0.49948 0.625864
S2 S 0.63398 0.401229 0.568201
N1 N 0.422829 0.405016 0.861279
N2 N 0.695919 0.278432 0.786974
C1 C 0.482467 0.428518 0.69789
C2 C 0.448793 0.414678 0.7887
C3 C 0.581857 0.387324 0.673996
C4 C 0.646537 0.327198 0.737183
S1 S 0.603925 0.500525 0.374151
S2 S 0.365977 0.598776 0.431813
N1 N 0.577206 0.594989 0.138666
N2 N 0.304117 0.721573 0.212972
C1 C 0.51749 0.571487 0.302124
C2 C 0.551164 0.585327 0.211314
C3 C 0.418099 0.612681 0.326018
C4 C 0.353509 0.672807 0.262831
Cu1 Cu 2.723e-005 2.497e-006 2.732e-005
S1 S 0.103879 -0.000519767 -0.125864
S2 S -0.13398 -0.0987707 -0.068201
N1 N 0.0771709 -0.0949843 -0.361279
N2 N -0.195919 -0.221568 -0.286974
C1 C 0.0175333 -0.0714824 -0.19789
C2 C 0.0512074 -0.0853224 -0.2887
C3 C -0.0818571 -0.112676 -0.173996
C4 C -0.146537 -0.172802 -0.237183
S1 S -0.103925 0.000524761 0.125849
S2 S 0.134023 0.0987757 0.0681866
N1 N -0.0772062 0.0949893 0.361334
N2 N 0.195883 0.221573 0.287028
C1 C -0.0174897 0.0714874 0.197876
C2 C -0.0511639 0.0853274 0.288686
C3 C 0.0819007 0.112681 0.173982
C4 C 0.146491 0.172807 0.237169
Cu1 Cu 2.723e-005 2.497e-006 1.00003
S1 S 0.103879 -0.000519767 0.874136
S2 S -0.13398 -0.0987707 0.931799
N1 N 0.0771709 -0.0949843 0.638721
N2 N -0.195919 -0.221568 0.713026
C1 C 0.0175333 -0.0714824 0.80211
C2 C 0.0512074 -0.0853224 0.7113
C3 C -0.0818571 -0.112676 0.826004
C4 C -0.146537 -0.172802 0.762817
S1 S -0.103925 0.000524761 1.12585
S2 S 0.134023 0.0987757 1.06819
N1 N -0.0772062 0.0949893 1.36133
N2 N 0.195883 0.221573 1.28703
C1 C -0.0174897 0.0714874 1.19788
C2 C -0.0511639 0.0853274 1.28869
C3 C 0.0819007 0.112681 1.17398
C4 C 0.146491 0.172807 1.23717
Cu1 Cu 2.723e-005 1 2.732e-005
S1 S 0.103879 0.99948 -0.125864
S2 S -0.13398 0.901229 -0.068201
N1 N 0.0771709 0.905016 -0.361279
N2 N -0.195919 0.778432 -0.286974
C1 C 0.0175333 0.928518 -0.19789
C2 C 0.0512074 0.914678 -0.2887
C3 C -0.0818571 0.887324 -0.173996
C4 C -0.146537 0.827198 -0.237183
S1 S -0.103925 1.00052 0.125849
S2 S 0.134023 1.09878 0.0681866
N1 N -0.0772062 1.09499 0.361334
N2 N 0.195883 1.22157 0.287028
C1 C -0.0174897 1.07149 0.197876
C2 C -0.0511639 1.08533 0.288686
C3 C 0.0819007 1.11268 0.173982
C4 C 0.146491 1.17281 0.237169
Cu1 Cu 2.723e-005 1 1.00003
S1 S 0.103879 0.99948 0.874136
S2 S -0.13398 0.901229 0.931799
N1 N 0.0771709 0.905016 0.638721
N2 N -0.195919 0.778432 0.713026
C1 C 0.0175333 0.928518 0.80211
C2 C 0.0512074 0.914678 0.7113
C3 C -0.0818571 0.887324 0.826004
C4 C -0.146537 0.827198 0.762817
S1 S -0.103925 1.00052 1.12585
S2 S 0.134023 1.09878 1.06819
N1 N -0.0772062 1.09499 1.36133
N2 N 0.195883 1.22157 1.28703
C1 C -0.0174897 1.07149 1.19788
C2 C -0.0511639 1.08533 1.28869
C3 C 0.0819007 1.11268 1.17398
C4 C 0.146491 1.17281 1.23717
Cu1 Cu 1.00003 2.497e-006 2.732e-005
S1 S 1.10388 -0.000519767 -0.125864
S2 S 0.86602 -0.0987707 -0.068201
N1 N 1.07717 -0.0949843 -0.361279
N2 N 0.804081 -0.221568 -0.286974
C1 C 1.01753 -0.0714824 -0.19789
C2 C 1.05121 -0.0853224 -0.2887
C3 C 0.918143 -0.112676 -0.173996
C4 C 0.853463 -0.172802 -0.237183
S1 S 0.896075 0.000524761 0.125849
S2 S 1.13402 0.0987757 0.0681866
N1 N 0.922794 0.0949893 0.361334
N2 N 1.19588 0.221573 0.287028
C1 C 0.98251 0.0714874 0.197876
C2 C 0.948836 0.0853274 0.288686
C3 C 1.0819 0.112681 0.173982
C4 C 1.14649 0.172807 0.237169
Cu1 Cu 1.00003 2.497e-006 1.00003
S1 S 1.10388 -0.000519767 0.874136
S2 S 0.86602 -0.0987707 0.931799
N1 N 1.07717 -0.0949843 0.638721
N2 N 0.804081 -0.221568 0.713026
C1 C 1.01753 -0.0714824 0.80211
C2 C 1.05121 -0.0853224 0.7113
C3 C 0.918143 -0.112676 0.826004
C4 C 0.853463 -0.172802 0.762817
S1 S 0.896075 0.000524761 1.12585
S2 S 1.13402 0.0987757 1.06819
N1 N 0.922794 0.0949893 1.36133
N2 N 1.19588 0.221573 1.28703
C1 C 0.98251 0.0714874 1.19788
C2 C 0.948836 0.0853274 1.28869
C3 C 1.0819 0.112681 1.17398
C4 C 1.14649 0.172807 1.23717
Cu1 Cu 1.00003 1 2.732e-005
S1 S 1.10388 0.99948 -0.125864
S2 S 0.86602 0.901229 -0.068201
N1 N 1.07717 0.905016 -0.361279
N2 N 0.804081 0.778432 -0.286974
C1 C 1.01753 0.928518 -0.19789
C2 C 1.05121 0.914678 -0.2887
C3 C 0.918143 0.887324 -0.173996
C4 C 0.853463 0.827198 -0.237183
S1 S 0.896075 1.00052 0.125849
S2 S 1.13402 1.09878 0.0681866
N1 N 0.922794 1.09499 0.361334
N2 N 1.19588 1.22157 0.287028
C1 C 0.98251 1.07149 0.197876
C2 C 0.948836 1.08533 0.288686
C3 C 1.0819 1.11268 0.173982
C4 C 1.14649 1.17281 0.237169
Cu1 Cu 1.00003 1 1.00003
S1 S 1.10388 0.99948 0.874136
S2 S 0.86602 0.901229 0.931799
N1 N 1.07717 0.905016 0.638721
N2 N 0.804081 0.778432 0.713026
C1 C 1.01753 0.928518 0.80211
C2 C 1.05121 0.914678 0.7113
C3 C 0.918143 0.887324 0.826004
C4 C 0.853463 0.827198 0.762817
S1 S 0.896075 1.00052 1.12585
S2 S 1.13402 1.09878 1.06819
N1 N 0.922794 1.09499 1.36133
N2 N 1.19588 1.22157 1.28703
C1 C 0.98251 1.07149 1.19788
C2 C 0.948836 1.08533 1.28869
C3 C 1.0819 1.11268 1.17398
C4 C 1.14649 1.17281 1.23717
P1 P 0.503046 0.0560781 0.708939
C5 C 0.497016 0.0945298 0.824886
C6 C 0.406383 0.149694 0.844015
H6A H 0.350432 0.169997 0.796365
C7 C 0.39851 0.17522 0.934617
H7A H 0.336879 0.212431 0.947669
C8 C 0.480096 0.145973 1.00319
H8A H 0.474104 0.163077 1.06362
C9 C 0.570868 0.0919837 0.985512
H9A H 0.628186 0.0739004 1.0333
C10 C 0.578306 0.0641732 0.896705
H10A H 0.638192 0.0248728 0.885104
C11 C 0.476535 -0.0590811 0.707489
C12 C 0.54039 -0.115812 0.657906
H12A H 0.603202 -0.0949868 0.627314
C13 C 0.511111 -0.202704 0.653694
H13A H 0.554079 -0.240698 0.620132
C14 C 0.419124 -0.233974 0.698373
H14A H 0.399228 -0.292925 0.694506
C15 C 0.35606 -0.179071 0.748992
H15A H 0.294177 -0.200876 0.779792
C16 C 0.384347 -0.0917879 0.75431
H16A H 0.341933 -0.0545113 0.789114
C17 C 0.385793 0.1085 0.633184
C18 C 0.285335 0.0631287 0.595686
H18A H 0.275629 0.00489622 0.6115
C19 C 0.199127 0.103669 0.534777
H19A H 0.13212 0.0723988 0.508605
C20 C 0.210771 0.189321 0.512472
H20A H 0.151907 0.216283 0.471383
C21 C 0.310002 0.235998 0.55073
H21A H 0.3181 0.294622 0.536089
C22 C 0.396865 0.195327 0.610671
H22A H 0.464076 0.226597 0.636429
C23 C 0.644432 0.0806898 0.667505
C24 C 0.644661 0.102494 0.576212
H24A H 0.572389 0.103278 0.537125
C25 C 0.751603 0.123189 0.541614
H25A H 0.750718 0.138074 0.47967
C26 C 0.856694 0.121818 0.597688
H26A H 0.928195 0.136376 0.574416
C27 C 0.85952 0.099426 0.687877
H27A H 0.932774 0.0975328 0.725789
C28 C 0.75328 0.0793188 0.72351
H28A H 0.755263 0.0646955 0.785592
P1 P -0.00304607 0.556078 0.791061
C5 C 0.0029839 0.59453 0.675114
C6 C 0.0936171 0.649694 0.655985
H6A H 0.149568 0.669997 0.703635
C7 C 0.10149 0.67522 0.565383
H7A H 0.163121 0.712431 0.552331
C8 C 0.0199041 0.645973 0.496809
H8A H 0.0258964 0.663077 0.436384
C9 C -0.070868 0.591984 0.514488
H9A H -0.128186 0.5739 0.4667
C10 C -0.0783061 0.564173 0.603295
H10A H -0.138192 0.524873 0.614896
C11 C 0.0234652 0.440919 0.792511
C12 C -0.0403898 0.384188 0.842094
H12A H -0.103202 0.405013 0.872686
C13 C -0.0111107 0.297296 0.846306
H13A H -0.0540793 0.259302 0.879868
C14 C 0.0808764 0.266026 0.801627
H14A H 0.100772 0.207075 0.805494
C15 C 0.14394 0.320929 0.751008
H15A H 0.205823 0.299124 0.720208
C16 C 0.115653 0.408212 0.74569
H16A H 0.158067 0.445489 0.710886
C17 C 0.114207 0.6085 0.866816
C18 C 0.214665 0.563129 0.904314
H18A H 0.224371 0.504896 0.8885
C19 C 0.300873 0.603669 0.965223
H19A H 0.36788 0.572399 0.991395
C20 C 0.289229 0.689321 0.987528
H20A H 0.348093 0.716283 1.02862
C21 C 0.189998 0.735998 0.94927
H21A H 0.1819 0.794622 0.963911
C22 C 0.103135 0.695327 0.889329
H22A H 0.0359238 0.726597 0.863571
C23 C -0.144432 0.58069 0.832495
C24 C -0.144661 0.602494 0.923788
H24A H -0.0723889 0.603278 0.962875
C25 C -0.251603 0.623189 0.958386
H25A H -0.250718 0.638074 1.02033
C26 C -0.356694 0.621818 0.902312
H26A H -0.428195 0.636376 0.925584
C27 C -0.35952 0.599426 0.812123
H27A H -0.432774 0.597533 0.774211
C28 C -0.25328 0.579319 0.77649
H28A H -0.255263 0.564695 0.714408
P1 P 0.496954 0.943922 0.291061
C5 C 0.502984 0.90547 0.175114
C6 C 0.593617 0.850306 0.155985
H6A H 0.649568 0.830003 0.203635
C7 C 0.60149 0.82478 0.0653826
H7A H 0.663121 0.787569 0.0523308
C8 C 0.519904 0.854027 -0.00319104
H8A H 0.525896 0.836923 -0.0636159
C9 C 0.429132 0.908016 0.0144876
H9A H 0.371814 0.9261 -0.0332999
C10 C 0.421694 0.935827 0.103295
H10A H 0.361808 0.975127 0.114896
C11 C 0.523465 1.05908 0.292511
C12 C 0.45961 1.11581 0.342094
H12A H 0.396798 1.09499 0.372686
C13 C 0.488889 1.2027 0.346306
H13A H 0.445921 1.2407 0.379868
C14 C 0.580876 1.23397 0.301627
H14A H 0.600772 1.29292 0.305494
C15 C 0.64394 1.17907 0.251008
H15A H 0.705823 1.20088 0.220208
C16 C 0.615653 1.09179 0.24569
H16A H 0.658067 1.05451 0.210886
C17 C 0.614207 0.8915 0.366816
C18 C 0.714665 0.936871 0.404314
H18A H 0.724371 0.995104 0.3885
C19 C 0.800873 0.896331 0.465223
H19A H 0.86788 0.927601 0.491395
C20 C 0.789229 0.810679 0.487528
H20A H 0.848093 0.783717 0.528617
C21 C 0.689998 0.764002 0.44927
H21A H 0.6819 0.705378 0.463911
C22 C 0.603135 0.804673 0.389329
H22A H 0.535924 0.773403 0.363571
C23 C 0.355568 0.91931 0.332495
C24 C 0.355339 0.897506 0.423788
H24A H 0.427611 0.896722 0.462875
C25 C 0.248397 0.876811 0.458386
H25A H 0.249282 0.861926 0.52033
C26 C 0.143306 0.878182 0.402312
H26A H 0.0718047 0.863624 0.425584
C27 C 0.14048 0.900574 0.312123
H27A H 0.0672263 0.902467 0.274211
C28 C 0.24672 0.920681 0.27649
H28A H 0.244737 0.935305 0.214408
P1 P 1.00305 0.443922 0.208939
C5 C 0.997016 0.40547 0.324886
C6 C 0.906383 0.350306 0.344015
H6A H 0.850432 0.330003 0.296365
C7 C 0.89851 0.32478 0.434617
H7A H 0.836879 0.287569 0.447669
C8 C 0.980096 0.354027 0.503191
H8A H 0.974104 0.336923 0.563616
C9 C 1.07087 0.408016 0.485512
H9A H 1.12819 0.4261 0.5333
C10 C 1.07831 0.435827 0.396705
H10A H 1.13819 0.475127 0.385104
C11 C 0.976535 0.559081 0.207489
C12 C 1.04039 0.615812 0.157906
H12A H 1.1032 0.594987 0.127314
C13 C 1.01111 0.702704 0.153694
H13A H 1.05408 0.740698 0.120132
C14 C 0.919124 0.733974 0.198373
H14A H 0.899228 0.792925 0.194506
C15 C 0.85606 0.679071 0.248992
H15A H 0.794177 0.700876 0.279792
C16 C 0.884347 0.591788 0.25431
H16A H 0.841933 0.554511 0.289114
C17 C 0.885793 0.3915 0.133184
C18 C 0.785335 0.436871 0.0956857
H18A H 0.775629 0.495104 0.1115
C19 C 0.699127 0.396331 0.0347774
H19A H 0.63212 0.427601 0.0086048
C20 C 0.710771 0.310679 0.012472
H20A H 0.651907 0.283717 -0.0286169
C21 C 0.810002 0.264002 0.0507296
H21A H 0.8181 0.205378 0.0360895
C22 C 0.896865 0.304673 0.110671
H22A H 0.964076 0.273403 0.136429
C23 C 1.14443 0.41931 0.167505
C24 C 1.14466 0.397506 0.0762116
H24A H 1.07239 0.396722 0.0371253
C25 C 1.2516 0.376811 0.0416141
H25A H 1.25072 0.361926 -0.0203301
C26 C 1.35669 0.378182 0.0976883
H26A H 1.4282 0.363624 0.0744161
C27 C 1.35952 0.400574 0.187877
H27A H 1.43277 0.402467 0.225789
C28 C 1.25328 0.420681 0.22351
H28A H 1.25526 0.435305 0.285592
P1 P -0.00302506 0.556081 0.791048
C5 C 0.00300491 0.594532 0.675101
C6 C 0.0936381 0.649696 0.655972
H6A H 0.149589 0.669999 0.703622
C7 C 0.101511 0.675222 0.56537
H7A H 0.163142 0.712433 0.552318
C8 C 0.0199251 0.645975 0.496796
H8A H 0.0259174 0.663079 0.436371
C9 C -0.0709367 0.591986 0.514475
H9A H -0.128165 0.573903 0.466687
C10 C -0.0782851 0.564176 0.603282
H10A H -0.138171 0.524875 0.614884
C11 C 0.0234863 0.440921 0.792498
C12 C -0.0403688 0.38419 0.842081
H12A H -0.103181 0.405016 0.872673
C13 C -0.0110897 0.297299 0.846294
H13A H -0.0541371 0.259304 0.879924
C14 C 0.0808974 0.266028 0.801614
H14A H 0.100793 0.207078 0.805481
C15 C 0.143871 0.320931 0.750995
H15A H 0.205844 0.299127 0.720195
C16 C 0.115674 0.408215 0.745677
H16A H 0.158088 0.445491 0.710873
C17 C 0.114228 0.608503 0.866803
C18 C 0.214686 0.563131 0.904301
H18A H 0.224392 0.504899 0.888487
C19 C 0.300894 0.603672 0.96521
H19A H 0.367901 0.572401 0.991382
C20 C 0.289161 0.689323 0.987515
H20A H 0.348114 0.716285 1.0286
C21 C 0.190029 0.736001 0.949327
H21A H 0.181921 0.794625 0.963898
C22 C 0.103066 0.695329 0.889316
H22A H 0.035866 0.7266 0.863627
C23 C -0.144411 0.580692 0.832482
C24 C -0.14473 0.602497 0.923775
H24A H -0.072357 0.60328 0.962931
C25 C -0.251582 0.623192 0.958373
H25A H -0.250697 0.638076 1.02032
C26 C -0.356673 0.621821 0.902299
H26A H -0.428174 0.636379 0.925571
C27 C -0.359499 0.599429 0.81211
H27A H -0.432842 0.597535 0.774198
C28 C -0.253259 0.579321 0.776477
H28A H -0.255332 0.564698 0.714395
P1 P 0.503025 0.0560806 0.708952
C5 C 0.496995 0.0945323 0.824899
C6 C 0.406362 0.149696 0.844028
H6A H 0.350411 0.169999 0.796378
C7 C 0.398489 0.175222 0.93463
H7A H 0.336858 0.212433 0.947682
C8 C 0.480075 0.145975 1.0032
H8A H 0.474083 0.163079 1.06363
C9 C 0.570937 0.0919862 0.985525
H9A H 0.628165 0.0739029 1.03331
C10 C 0.578285 0.0641757 0.896718
H10A H 0.638171 0.0248753 0.885116
C11 C 0.476514 -0.0590786 0.707502
C12 C 0.540369 -0.11581 0.657919
H12A H 0.603181 -0.0949843 0.627327
C13 C 0.51109 -0.202701 0.653706
H13A H 0.554137 -0.240696 0.620076
C14 C 0.419103 -0.233972 0.698386
H14A H 0.399207 -0.292922 0.694519
C15 C 0.356129 -0.179069 0.749005
H15A H 0.294156 -0.200873 0.779805
C16 C 0.384326 -0.0917854 0.754323
H16A H 0.341912 -0.0545088 0.789127
C17 C 0.385772 0.108503 0.633197
C18 C 0.285314 0.0631312 0.595699
H18A H 0.275608 0.00489872 0.611513
C19 C 0.199106 0.103672 0.53479
H19A H 0.132099 0.0724013 0.508618
C20 C 0.210839 0.189323 0.512485
H20A H 0.151886 0.216285 0.471396
C21 C 0.309971 0.236001 0.550673
H21A H 0.318079 0.294625 0.536102
C22 C 0.396934 0.195329 0.610684
H22A H 0.464134 0.2266 0.636373
C23 C 0.644411 0.0806923 0.667518
C24 C 0.64473 0.102497 0.576225
H24A H 0.572357 0.10328 0.537069
C25 C 0.751582 0.123192 0.541627
H25A H 0.750697 0.138076 0.479683
C26 C 0.856673 0.121821 0.597701
H26A H 0.928174 0.136379 0.574429
C27 C 0.859499 0.0994285 0.68789
H27A H 0.932842 0.0975353 0.725802
C28 C 0.753259 0.0793213 0.723523
H28A H 0.755332 0.064698 0.785605
P1 P 1.00303 0.443919 0.208952
C5 C 0.996995 0.405468 0.324899
C6 C 0.906362 0.350304 0.344028
H6A H 0.850411 0.330001 0.296378
C7 C 0.898489 0.324778 0.43463
H7A H 0.836858 0.287567 0.447682
C8 C 0.980075 0.354025 0.503204
H8A H 0.974083 0.336921 0.563629
C9 C 1.07094 0.408014 0.485525
H9A H 1.12817 0.426097 0.533313
C10 C 1.07829 0.435824 0.396718
H10A H 1.13817 0.475125 0.385116
C11 C 0.976514 0.559079 0.207502
C12 C 1.04037 0.61581 0.157919
H12A H 1.10318 0.594984 0.127327
C13 C 1.01109 0.702701 0.153706
H13A H 1.05414 0.740696 0.120076
C14 C 0.919103 0.733972 0.198386
H14A H 0.899207 0.792922 0.194519
C15 C 0.856129 0.679069 0.249005
H15A H 0.794156 0.700873 0.279805
C16 C 0.884326 0.591785 0.254323
H16A H 0.841912 0.554509 0.289127
C17 C 0.885772 0.391497 0.133197
C18 C 0.785314 0.436869 0.0956986
H18A H 0.775608 0.495101 0.111513
C19 C 0.699106 0.396328 0.0347903
H19A H 0.632099 0.427599 0.00861771
C20 C 0.710839 0.310677 0.0124849
H20A H 0.651886 0.283715 -0.028604
C21 C 0.809971 0.263999 0.0506734
H21A H 0.818079 0.205375 0.0361024
C22 C 0.896934 0.304671 0.110684
H22A H 0.964134 0.2734 0.136373
C23 C 1.14441 0.419308 0.167518
C24 C 1.14473 0.397503 0.0762245
H24A H 1.07236 0.39672 0.0370692
C25 C 1.25158 0.376808 0.041627
H25A H 1.2507 0.361924 -0.0203172
C26 C 1.35667 0.378179 0.0977012
H26A H 1.42817 0.363621 0.074429
C27 C 1.3595 0.400571 0.18789
H27A H 1.43284 0.402465 0.225802
C28 C 1.25326 0.420679 0.223523
H28A H 1.25533 0.435302 0.285605
P1 P 0.496975 0.943919 0.291048
C5 C 0.503005 0.905468 0.175101
C6 C 0.593638 0.850304 0.155972
H6A H 0.649589 0.830001 0.203622
C7 C 0.601511 0.824778 0.0653697
H7A H 0.663142 0.787567 0.0523179
C8 C 0.519925 0.854025 -0.00320394
H8A H 0.525917 0.836921 -0.0636288
C9 C 0.429063 0.908014 0.0144746
H9A H 0.371835 0.926097 -0.0333128
C10 C 0.421715 0.935824 0.103282
H10A H 0.361829 0.975125 0.114884
C11 C 0.523486 1.05908 0.292498
C12 C 0.459631 1.11581 0.342081
H12A H 0.396819 1.09498 0.372673
C13 C 0.48891 1.2027 0.346294
H13A H 0.445863 1.2407 0.379924
C14 C 0.580897 1.23397 0.301614
H14A H 0.600793 1.29292 0.305481
C15 C 0.643871 1.17907 0.250995
H15A H 0.705844 1.20087 0.220195
C16 C 0.615674 1.09179 0.245677
H16A H 0.658088 1.05451 0.210873
C17 C 0.614228 0.891497 0.366803
C18 C 0.714686 0.936869 0.404301
H18A H 0.724392 0.995101 0.388487
C19 C 0.800894 0.896328 0.46521
H19A H 0.867901 0.927599 0.491382
C20 C 0.789161 0.810677 0.487515
H20A H 0.848114 0.783715 0.528604
C21 C 0.690029 0.763999 0.449327
H21A H 0.681921 0.705375 0.463898
C22 C 0.603066 0.804671 0.389316
H22A H 0.535866 0.7734 0.363627
C23 C 0.355589 0.919308 0.332482
C24 C 0.35527 0.897503 0.423775
H24A H 0.427643 0.89672 0.462931
C25 C 0.248418 0.876808 0.458373
H25A H 0.249303 0.861924 0.520317
C26 C 0.143327 0.878179 0.402299
H26A H 0.0718257 0.863621 0.425571
C27 C 0.140501 0.900571 0.31211
H27A H 0.0671576 0.902465 0.274198
C28 C 0.246741 0.920679 0.276477
H28A H 0.244668 0.935302 0.214395
P1 P 0.49691 0.943927 0.291075
C5 C 0.50303 0.905475 0.175129
C6 C 0.593574 0.850311 0.156
H6A H 0.649603 0.830008 0.20358
C7 C 0.601536 0.824785 0.065397
H7A H 0.663066 0.787574 0.0522761
C8 C 0.519861 0.854032 -0.00317662
H8A H 0.525943 0.836928 -0.0636015
C9 C 0.429088 0.908021 0.014502
H9A H 0.37177 0.926105 -0.0332855
C10 C 0.42174 0.935832 0.103309
H10A H 0.361764 0.975132 0.114911
C11 C 0.523511 1.05909 0.292525
C12 C 0.459567 1.11582 0.342108
H12A H 0.396844 1.09499 0.372701
C13 C 0.488935 1.20271 0.346321
H13A H 0.445877 1.2407 0.379883
C14 C 0.580912 1.23398 0.301572
H14A H 0.600818 1.29293 0.305508
C15 C 0.643897 1.17908 0.251022
H15A H 0.705779 1.20088 0.220223
C16 C 0.615699 1.09179 0.245705
H16A H 0.658113 1.05452 0.2109
C17 C 0.614164 0.891505 0.366831
C18 C 0.714711 0.936876 0.404329
H18A H 0.724417 0.995109 0.388515
C19 C 0.800908 0.896336 0.465168
H19A H 0.867926 0.927606 0.49141
C20 C 0.789175 0.810684 0.487473
H20A H 0.848139 0.783722 0.528631
C21 C 0.689954 0.764007 0.449285
H21A H 0.681946 0.705383 0.463925
C22 C 0.60308 0.804678 0.389274
H22A H 0.53588 0.773408 0.363585
C23 C 0.355614 0.919315 0.332509
C24 C 0.355295 0.897511 0.423803
H24A H 0.427568 0.896727 0.462889
C25 C 0.248443 0.876816 0.4584
H25A H 0.249317 0.861931 0.520275
C26 C 0.143262 0.878187 0.402326
H26A H 0.0717611 0.863629 0.425598
C27 C 0.140515 0.900579 0.312069
H27A H 0.0671827 0.902472 0.274225
C28 C 0.246677 0.920686 0.276504
H28A H 0.244694 0.93531 0.214422
P1 P 1.00309 0.443927 0.208925
C5 C 0.99697 0.405475 0.324871
C6 C 0.906426 0.350311 0.344
H6A H 0.850397 0.330008 0.29642
C7 C 0.898464 0.324785 0.434603
H7A H 0.836934 0.287574 0.447724
C8 C 0.980139 0.354032 0.503177
H8A H 0.974057 0.336928 0.563601
C9 C 1.07091 0.408021 0.485498
H9A H 1.12823 0.426105 0.533285
C10 C 1.07826 0.435832 0.396691
H10A H 1.13824 0.475132 0.385089
C11 C 0.976489 0.559086 0.207475
C12 C 1.04043 0.615817 0.157892
H12A H 1.10316 0.594992 0.127299
C13 C 1.01106 0.702709 0.153679
H13A H 1.05412 0.740703 0.120117
C14 C 0.919088 0.733979 0.198428
H14A H 0.899182 0.79293 0.194492
C15 C 0.856103 0.679076 0.248978
H15A H 0.794221 0.700881 0.279777
C16 C 0.884301 0.591793 0.254295
H16A H 0.841887 0.554516 0.2891
C17 C 0.885836 0.391505 0.133169
C18 C 0.785289 0.436876 0.0956713
H18A H 0.775583 0.495109 0.111485
C19 C 0.699092 0.396336 0.034832
H19A H 0.632074 0.427606 0.00859039
C20 C 0.710825 0.310684 0.0125266
H20A H 0.651861 0.283722 -0.0286313
C21 C 0.810046 0.264007 0.0507152
H21A H 0.818054 0.205383 0.0360751
C22 C 0.89692 0.304678 0.110726
H22A H 0.96412 0.273408 0.136415
C23 C 1.14439 0.419315 0.167491
C24 C 1.1447 0.397511 0.0761972
H24A H 1.07243 0.396727 0.0371109
C25 C 1.25156 0.376816 0.0415996
H25A H 1.25068 0.361931 -0.0202754
C26 C 1.35674 0.378187 0.0976739
H26A H 1.42824 0.363629 0.0744017
C27 C 1.35949 0.400579 0.187931
H27A H 1.43282 0.402472 0.225775
C28 C 1.25332 0.420686 0.223496
H28A H 1.25531 0.43531 0.285578
P1 P 0.50309 0.0560731 0.708925
C5 C 0.49697 0.0945248 0.824871
C6 C 0.406426 0.149689 0.844
H6A H 0.350397 0.169992 0.79642
C7 C 0.398464 0.175215 0.934603
H7A H 0.336934 0.212426 0.947724
C8 C 0.480139 0.145968 1.00318
H8A H 0.474057 0.163072 1.0636
C9 C 0.570912 0.0919788 0.985498
H9A H 0.62823 0.0738954 1.03329
C10 C 0.57826 0.0641682 0.896691
H10A H 0.638236 0.0248678 0.885089
C11 C 0.476489 -0.0590861 0.707475
C12 C 0.540433 -0.115817 0.657892
H12A H 0.603156 -0.0949918 0.627299
C13 C 0.511065 -0.202709 0.653679
H13A H 0.554123 -0.240703 0.620117
C14 C 0.419088 -0.233979 0.698428
H14A H 0.399182 -0.29293 0.694492
C15 C 0.356103 -0.179076 0.748978
H15A H 0.294221 -0.200881 0.779777
C16 C 0.384301 -0.0917929 0.754295
H16A H 0.341887 -0.0545163 0.7891
C17 C 0.385836 0.108495 0.633169
C18 C 0.285289 0.0631237 0.595671
H18A H 0.275583 0.00489123 0.611485
C19 C 0.199092 0.103664 0.534832
H19A H 0.132074 0.0723939 0.50859
C20 C 0.210825 0.189316 0.512527
H20A H 0.151861 0.216278 0.471369
C21 C 0.310046 0.235993 0.550715
H21A H 0.318054 0.294617 0.536075
C22 C 0.39692 0.195322 0.610726
H22A H 0.46412 0.226592 0.636415
C23 C 0.644386 0.0806848 0.667491
C24 C 0.644705 0.102489 0.576197
H24A H 0.572432 0.103273 0.537111
C25 C 0.751557 0.123184 0.5416
H25A H 0.750683 0.138069 0.479725
C26 C 0.856738 0.121813 0.597674
H26A H 0.928239 0.136371 0.574402
C27 C 0.859485 0.099421 0.687931
H27A H 0.932817 0.0975278 0.725775
C28 C 0.753323 0.0793139 0.723496
H28A H 0.755306 0.0646905 0.785578
P1 P -0.00308964 0.556073 0.791075
C5 C 0.00303003 0.594525 0.675129
C6 C 0.0935735 0.649689 0.656
H6A H 0.149603 0.669992 0.70358
C7 C 0.101536 0.675215 0.565397
H7A H 0.163066 0.712426 0.552276
C8 C 0.0198605 0.645968 0.496823
H8A H 0.0259425 0.663072 0.436399
C9 C -0.0709116 0.591979 0.514502
H9A H -0.12823 0.573895 0.466715
C10 C -0.07826 0.564168 0.603309
H10A H -0.138236 0.524868 0.614911
C11 C 0.0235114 0.440914 0.792525
C12 C -0.0404334 0.384183 0.842108
H12A H -0.103156 0.405008 0.872701
C13 C -0.0110646 0.297291 0.846321
H13A H -0.0541229 0.259297 0.879883
C14 C 0.0809116 0.266021 0.801572
H14A H 0.100818 0.20707 0.805508
C15 C 0.143897 0.320924 0.751022
H15A H 0.205779 0.299119 0.720223
C16 C 0.115699 0.408207 0.745705
H16A H 0.158113 0.445484 0.7109
C17 C 0.114164 0.608495 0.866831
C18 C 0.214711 0.563124 0.904329
H18A H 0.224417 0.504891 0.888515
C19 C 0.300908 0.603664 0.965168
H19A H 0.367926 0.572394 0.99141
C20 C 0.289175 0.689316 0.987473
H20A H 0.348139 0.716278 1.02863
C21 C 0.189954 0.735993 0.949285
H21A H 0.181946 0.794617 0.963925
C22 C 0.10308 0.695322 0.889274
H22A H 0.0358802 0.726592 0.863585
C23 C -0.144386 0.580685 0.832509
C24 C -0.144705 0.602489 0.923803
H24A H -0.0724324 0.603273 0.962889
C25 C -0.251557 0.623184 0.9584
H25A H -0.250683 0.638069 1.02028
C26 C -0.356738 0.621813 0.902326
H26A H -0.428239 0.636371 0.925598
C27 C -0.359485 0.599421 0.812069
H27A H -0.432817 0.597528 0.774225
C28 C -0.253323 0.579314 0.776504
H28A H -0.255306 0.56469 0.714422
P1 P 1.00307 0.443924 0.208966
C5 C 0.997041 0.405473 0.324913
C6 C 0.906397 0.350309 0.343973
H6A H 0.850367 0.330006 0.296393
C7 C 0.898524 0.324783 0.434576
H7A H 0.836905 0.287572 0.447697
C8 C 0.980121 0.35403 0.503218
H8A H 0.974118 0.336926 0.563574
C9 C 1.07088 0.408019 0.485471
H9A H 1.12821 0.426102 0.533327
C10 C 1.07833 0.435829 0.396732
H10A H 1.13822 0.47513 0.385131
C11 C 0.97647 0.559084 0.207516
C12 C 1.04041 0.615815 0.157933
H12A H 1.10322 0.594989 0.127272
C13 C 1.01114 0.702706 0.153721
H13A H 1.05409 0.740701 0.12009
C14 C 0.919059 0.733977 0.198401
H14A H 0.899163 0.792927 0.194534
C15 C 0.856085 0.679074 0.24902
H15A H 0.794202 0.700878 0.279819
C16 C 0.884271 0.59179 0.254268
H16A H 0.841858 0.554514 0.289073
C17 C 0.885818 0.391502 0.133211
C18 C 0.785271 0.436874 0.095713
H18A H 0.775564 0.495106 0.111527
C19 C 0.699063 0.396333 0.0348047
H19A H 0.632145 0.427604 0.00863212
C20 C 0.710796 0.310682 0.0124993
H20A H 0.651932 0.28372 -0.0285896
C21 C 0.810017 0.264004 0.0506878
H21A H 0.818125 0.20538 0.0361168
C22 C 0.89689 0.304676 0.110698
H22A H 0.96409 0.273405 0.136388
C23 C 1.14437 0.419313 0.167532
C24 C 1.14468 0.397508 0.0761699
H24A H 1.0724 0.396725 0.0370836
C25 C 1.25162 0.376813 0.0415723
H25A H 1.25065 0.361929 -0.0203028
C26 C 1.35672 0.378184 0.0977157
H26A H 1.42821 0.363626 0.0743744
C27 C 1.35946 0.400576 0.187904
H27A H 1.4328 0.40247 0.225816
C28 C 1.25329 0.420684 0.223468
H28A H 1.25529 0.435307 0.28562
P1 P 0.496929 0.943924 0.291034
C5 C 0.502959 0.905473 0.175087
C6 C 0.593603 0.850309 0.156027
H6A H 0.649633 0.830006 0.203607
C7 C 0.601476 0.824783 0.0654243
H7A H 0.663095 0.787572 0.0523035
C8 C 0.519879 0.85403 -0.00321836
H8A H 0.525882 0.836926 -0.0635742
C9 C 0.429118 0.908019 0.0145293
H9A H 0.371788 0.926102 -0.0333272
C10 C 0.421669 0.935829 0.103268
H10A H 0.361783 0.97513 0.114869
C11 C 0.52353 1.05908 0.292484
C12 C 0.459585 1.11581 0.342067
H12A H 0.396784 1.09499 0.372728
C13 C 0.488864 1.20271 0.346279
H13A H 0.445906 1.2407 0.37991
C14 C 0.580941 1.23398 0.301599
H14A H 0.600837 1.29293 0.305466
C15 C 0.643915 1.17907 0.25098
H15A H 0.705798 1.20088 0.220181
C16 C 0.615729 1.09179 0.245732
H16A H 0.658142 1.05451 0.210927
C17 C 0.614182 0.891502 0.366789
C18 C 0.714729 0.936874 0.404287
H18A H 0.724436 0.995106 0.388473
C19 C 0.800937 0.896333 0.465195
H19A H 0.867855 0.927604 0.491368
C20 C 0.789204 0.810682 0.487501
H20A H 0.848068 0.78372 0.52859
C21 C 0.689983 0.764004 0.449312
H21A H 0.681875 0.70538 0.463883
C22 C 0.60311 0.804676 0.389302
H22A H 0.53591 0.773405 0.363612
C23 C 0.355632 0.919313 0.332468
C24 C 0.355324 0.897508 0.42383
H24A H 0.427597 0.896725 0.462916
C25 C 0.248382 0.876813 0.458428
H25A H 0.249346 0.861929 0.520303
C26 C 0.143281 0.878184 0.402284
H26A H 0.0717904 0.863626 0.425626
C27 C 0.140544 0.900576 0.312096
H27A H 0.0672012 0.90247 0.274184
C28 C 0.246706 0.920684 0.276532
H28A H 0.244712 0.935307 0.21438
P1 P -0.00307119 0.556076 0.791034
C5 C 0.00295878 0.594527 0.675087
C6 C 0.0936029 0.649691 0.656027
H6A H 0.149633 0.669994 0.703607
C7 C 0.101476 0.675217 0.565424
H7A H 0.163095 0.712428 0.552303
C8 C 0.0198789 0.64597 0.496782
H8A H 0.0258822 0.663074 0.436426
C9 C -0.0708823 0.591981 0.514529
H9A H -0.128212 0.573898 0.466673
C10 C -0.0783313 0.564171 0.603268
H10A H -0.138217 0.52487 0.614869
C11 C 0.0235298 0.440916 0.792484
C12 C -0.0404149 0.384185 0.842067
H12A H -0.103216 0.405011 0.872728
C13 C -0.0111359 0.297294 0.846279
H13A H -0.0540936 0.259299 0.87991
C14 C 0.080941 0.266023 0.801599
H14A H 0.100837 0.207073 0.805466
C15 C 0.143915 0.320926 0.75098
H15A H 0.205798 0.299122 0.720181
C16 C 0.115729 0.40821 0.745732
H16A H 0.158142 0.445486 0.710927
C17 C 0.114182 0.608498 0.866789
C18 C 0.214729 0.563126 0.904287
H18A H 0.224436 0.504894 0.888473
C19 C 0.300937 0.603667 0.965195
H19A H 0.367855 0.572396 0.991368
C20 C 0.289204 0.689318 0.987501
H20A H 0.348068 0.71628 1.02859
C21 C 0.189983 0.735996 0.949312
H21A H 0.181875 0.79462 0.963883
C22 C 0.10311 0.695324 0.889302
H22A H 0.0359096 0.726595 0.863612
C23 C -0.144368 0.580687 0.832468
C24 C -0.144676 0.602492 0.92383
H24A H -0.0724031 0.603275 0.962916
C25 C -0.251618 0.623187 0.958428
H25A H -0.250654 0.638071 1.0203
C26 C -0.356719 0.621816 0.902284
H26A H -0.42821 0.636374 0.925626
C27 C -0.359456 0.599424 0.812096
H27A H -0.432799 0.59753 0.774184
C28 C -0.253294 0.579316 0.776532
H28A H -0.255288 0.564693 0.71438
P1 P 0.503071 0.0560756 0.708966
C5 C 0.497041 0.0945273 0.824913
C6 C 0.406397 0.149691 0.843973
H6A H 0.350367 0.169994 0.796393
C7 C 0.398524 0.175217 0.934576
H7A H 0.336905 0.212428 0.947697
C8 C 0.480121 0.14597 1.00322
H8A H 0.474118 0.163074 1.06357
C9 C 0.570882 0.0919813 0.985471
H9A H 0.628212 0.0738979 1.03333
C10 C 0.578331 0.0641707 0.896732
H10A H 0.638217 0.0248703 0.885131
C11 C 0.47647 -0.0590836 0.707516
C12 C 0.540415 -0.115815 0.657933
H12A H 0.603216 -0.0949893 0.627272
C13 C 0.511136 -0.202706 0.653721
H13A H 0.554094 -0.240701 0.62009
C14 C 0.419059 -0.233977 0.698401
H14A H 0.399163 -0.292927 0.694534
C15 C 0.356085 -0.179074 0.74902
H15A H 0.294202 -0.200878 0.779819
C16 C 0.384271 -0.0917904 0.754268
H16A H 0.341858 -0.0545138 0.789073
C17 C 0.385818 0.108498 0.633211
C18 C 0.285271 0.0631262 0.595713
H18A H 0.275564 0.00489373 0.611527
C19 C 0.199063 0.103667 0.534805
H19A H 0.132145 0.0723964 0.508632
C20 C 0.210796 0.189318 0.512499
H20A H 0.151932 0.21628 0.47141
C21 C 0.310017 0.235996 0.550688
H21A H 0.318125 0.29462 0.536117
C22 C 0.39689 0.195324 0.610698
H22A H 0.46409 0.226595 0.636388
C23 C 0.644368 0.0806873 0.667532
C24 C 0.644676 0.102492 0.57617
H24A H 0.572403 0.103275 0.537084
C25 C 0.751618 0.123187 0.541572
H25A H 0.750654 0.138071 0.479697
C26 C 0.856719 0.121816 0.597716
H26A H 0.92821 0.136374 0.574374
C27 C 0.859456 0.0994235 0.687904
H27A H 0.932799 0.0975303 0.725816
C28 C 0.753294 0.0793163 0.723468
H28A H 0.755288 0.064693 0.78562

#END
