####################################################################### 
# 
# This file contains crystal structure data downloaded from the 
# Cambridge Structural Database (CSD) hosted by the Cambridge 
# Crystallographic Data Centre (CCDC).
# 
# Full information about CCDC data access policies and citation 
# guidelines are available at http://www.ccdc.cam.ac.uk/access/V1 
# 
# Audit and citation data items may have been added by the CCDC. 
# Please retain this information to preserve the provenance of 
# this file and to allow appropriate attribution of the data. 
# 
#######################################################################

data__A_TEXRAY.INF_file_is_not_
_audit_block_doi                 10.5517/cc9j756
_database_code_depnum_ccdc_archive 'CCDC 283717'
loop_
_citation_id
_citation_doi
_citation_year
1 10.1246/cl.2006.34 2006
_audit_update_record             
;
2005-09-12 deposited with the CCDC.	2023-02-20 downloaded from the CCDC.
;

#=======================================================================
#======

# CHEMICAL DATA

_chemical_formula_sum            'C81 H51 Cl2 P2 S24 V '
_chemical_formula_moiety         'C81 H51 Cl2 P2 S24 V '
_chemical_formula_weight         1977.53
_chemical_melting_point          ?

#=======================================================================
#======

# CRYSTAL DATA
_symmetry_cell_setting           triclinic
_symmetry_space_group_name_H-M   'P -1'
_symmetry_space_group_name_Hall  '-P 1'
_symmetry_Int_Tables_number      2
loop_
_symmetry_equiv_pos_site_id
_symmetry_equiv_pos_as_xyz
1 +X,+Y,+Z
2 -X,-Y,-Z

#-----------------------------------------------------------------------
#------

_cell_length_a                   15.206(2)
_cell_length_b                   16.308(3)
_cell_length_c                   18.4972(8)
_cell_angle_alpha                107.9751(13)
_cell_angle_beta                 95.8669(14)
_cell_angle_gamma                106.1170(10)
_cell_volume                     4101.9(10)
_cell_formula_units_Z            2
_cell_measurement_reflns_used    ?
_cell_measurement_theta_min      ?
_cell_measurement_theta_max      ?
_cell_measurement_temperature    273.1

#-----------------------------------------------------------------------
#------

_exptl_crystal_description       unknown
_exptl_crystal_colour            unknown
_exptl_crystal_size_max          0.00
_exptl_crystal_size_mid          0.00
_exptl_crystal_size_min          0.00
_exptl_crystal_density_diffrn    1.601
_exptl_crystal_density_meas      ?
_exptl_crystal_density_method    'not measured'
_exptl_crystal_F_000             2016.00
_exptl_absorpt_coefficient_mu    0.882
_exptl_absorpt_correction_type   none

#=======================================================================
#======

# EXPERIMENTAL DATA

_diffrn_radiation_type           'Mo K\/Ya'
_diffrn_radiation_wavelength     0.71069
_diffrn_measurement_device_type  ?
_diffrn_reflns_number            16195
_diffrn_reflns_av_R_equivalents  ?
_diffrn_reflns_theta_max         27.55
_diffrn_measured_fraction_theta_max 0.854
_diffrn_reflns_theta_full        27.55
_diffrn_measured_fraction_theta_full 0.854
_diffrn_reflns_limit_h_min       0
_diffrn_reflns_limit_h_max       18
_diffrn_reflns_limit_k_min       -20
_diffrn_reflns_limit_k_max       19
_diffrn_reflns_limit_l_min       -23
_diffrn_reflns_limit_l_max       21

#=======================================================================
#======

# REFINEMENT DATA

_refine_special_details          
;
Refinement using reflections with F^2^ > 2.0 sigma(F^2^).
The weighted R-factor (wR) and goodness of fit (S) are based on
F^2^.
R-factor (gt) are based on F. The threshold expression of
F^2^ > 2.0 sigma(F^2^) is used only for calculating R-factor (gt).
;
_reflns_number_total             16195
_reflns_number_gt                7787
_reflns_threshold_expression     F^2^>2.0\/Ys(F^2^)
_refine_ls_structure_factor_coef Fsqd
_refine_ls_R_factor_gt           0.0874
_refine_ls_wR_factor_ref         0.2307
_refine_ls_hydrogen_treatment    noref
_refine_ls_number_reflns         7874
_refine_ls_number_parameters     967
_refine_ls_goodness_of_fit_ref   0.810
_refine_ls_weighting_scheme      calc
_refine_ls_weighting_details     
'w = 1/[0.0164Fo^2^ + 1.0000\/Ys(Fo^2^)]/(4Fo^2^)'
_refine_ls_shift/su_max          0.0021
_refine_diff_density_max         0.75
_refine_diff_density_min         -0.76
_refine_ls_extinction_method     none
_refine_ls_extinction_coef       ?

loop_
_atom_type_symbol
_atom_type_description
_atom_type_scat_dispersion_real
_atom_type_scat_dispersion_imag
_atom_type_scat_source
S S 0.125 0.123
;
International Tables for Crystallography
(1992, Vol. C, Tables 4.2.6.8 and 6.1.1.4)
;
V V 0.300 0.529
;
International Tables for Crystallography
(1992, Vol. C, Tables 4.2.6.8 and 6.1.1.4)
;
C C 0.003 0.002
;
International Tables for Crystallography
(1992, Vol. C, Tables 4.2.6.8 and 6.1.1.4)
;
P P 0.102 0.094
;
International Tables for Crystallography
(1992, Vol. C, Tables 4.2.6.8 and 6.1.1.4)
;
H H 0.000 0.000
;
International Tables for Crystallography
(1992, Vol. C, Table 6.1.1.4)
;
Cl Cl 0.148 0.159
;
International Tables for Crystallography
(1992, Vol. C, Tables 4.2.6.8 and 6.1.1.4)
;

#=======================================================================
#======

# ATOMIC COORDINATES AND THERMAL PARAMETERS

loop_
_atom_site_label
_atom_site_type_symbol
_atom_site_fract_x
_atom_site_fract_y
_atom_site_fract_z
_atom_site_U_iso_or_equiv
_atom_site_adp_type
_atom_site_occupancy
_atom_site_symmetry_multiplicity
_atom_site_calc_flag
_atom_site_refinement_flags
_atom_site_disorder_assembly
_atom_site_disorder_group
V(1) V 0.95719(13) 0.27392(12) 0.20837(10) 0.0233(5) Uani 1.00 1 d . . .
C(L1) Cl 1.6881(3) 0.1048(3) 0.5147(2) 0.0812(16) Uani 1.00 1 d . . .
C(L2) Cl 1.4939(2) 0.0012(2) 0.4027(2) 0.0581(12) Uani 1.00 1 d . . .
S(1) S 0.8949(2) 0.31547(19) 0.10828(14) 0.0260(7) Uani 1.00 1 d . . .
S(2) S 1.0870(2) 0.4068(2) 0.23216(16) 0.0291(8) Uani 1.00 1 d . . .
S(3) S 1.2084(2) 0.6153(2) 0.25769(17) 0.0312(8) Uani 1.00 1 d . . .
S(4) S 1.1458(2) 0.7197(2) 0.17337(17) 0.0329(8) Uani 1.00 1 d . . .
S(5) S 1.3263(2) 0.8058(2) 0.28742(19) 0.0397(9) Uani 1.00 1 d . . .
S(6) S 0.9386(2) 0.6233(2) 0.04599(17) 0.0319(8) Uani 1.00 1 d . . .
S(7) S 0.8265(2) 0.4371(2) 0.02354(16) 0.0295(8) Uani 1.00 1 d . . .
S(8) S 0.7543(2) 0.5401(2) -0.06200(18) 0.0410(10) Uani 1.00 1 d . . .
S(9) S 0.8576(2) 0.3469(2) 0.27209(14) 0.0275(8) Uani 1.00 1 d . . .
S(10) S 0.9988(2) 0.2612(2) 0.33194(14) 0.0261(8) Uani 1.00 1 d . . .
S(11) S 1.0401(2) 0.2943(2) 0.51734(17) 0.0359(9) Uani 1.00 1 d . . .
S(12) S 0.9689(2) 0.4169(2) 0.62788(17) 0.0353(9) Uani 1.00 1 d . . .
S(13) S 1.0889(3) 0.3273(4) 0.6864(2) 0.0819(19) Uani 1.00 1 d . . .
S(14) S 0.8269(2) 0.5183(2) 0.56107(16) 0.0304(8) Uani 1.00 1 d . . .
S(15) S 0.7759(2) 0.4745(2) 0.39400(16) 0.0315(8) Uani 1.00 1 d . . .
S(16) S 0.6966(2) 0.5991(2) 0.4978(2) 0.0449(10) Uani 1.00 1 d . . .
S(17) S 0.8405(2) 0.13227(19) 0.13696(14) 0.0244(7) Uani 1.00 1 d . . .
S(18) S 1.0625(2) 0.19406(19) 0.17309(14) 0.0250(7) Uani 1.00 1 d . . .
S(19) S 1.1606(2) 0.03931(19) 0.12490(14) 0.0250(7) Uani 1.00 1 d . . .
S(20) S 1.0549(2) -0.15035(19) 0.03590(14) 0.0251(7) Uani 1.00 1 d . . .
S(21) S 1.2607(2) -0.0958(2) 0.08381(18) 0.0374(9) Uani 1.00 1 d . . .
S(22) S 0.8196(2) -0.2150(2) -0.01062(16) 0.0282(8) Uani 1.00 1 d . . .
S(23) S 0.7263(2) -0.0802(2) 0.03838(16) 0.0281(8) Uani 1.00 1 d . . .
S(24) S 0.6114(2) -0.2756(2) -0.04273(18) 0.0375(9) Uani 1.00 1 d . . .
P(1) P 1.6531(2) 0.7359(2) 0.22616(16) 0.0260(8) Uani 1.00 1 d . . .
P(2) P 1.4501(2) 0.2560(2) 0.29239(16) 0.0279(8) Uani 1.00 1 d . . .
C(1) C 0.9603(8) 0.4291(7) 0.1298(6) 0.024(3) Uani 1.00 1 d . . .
C(2) C 1.0463(8) 0.4676(7) 0.1817(6) 0.025(3) Uani 1.00 1 d . . .
C(3) C 1.1004(7) 0.5595(7) 0.1944(5) 0.025(3) Uani 1.00 1 d . . .
C(4) C 1.0688(9) 0.6086(8) 0.1541(6) 0.030(3) Uani 1.00 1 d . . .
C(5) C 0.9847(9) 0.5704(7) 0.1005(6) 0.030(3) Uani 1.00 1 d . . .
C(6) C 0.9324(8) 0.4822(7) 0.0903(5) 0.025(3) Uani 1.00 1 d . . .
C(7) C 1.2316(9) 0.7181(9) 0.2418(7) 0.040(3) Uani 1.00 1 d . . .
C(8) C 0.8352(9) 0.5321(8) -0.0011(6) 0.034(3) Uani 1.00 1 d . . .
C(9) C 0.8859(8) 0.3650(7) 0.3709(5) 0.024(3) Uani 1.00 1 d . . .
C(10) C 0.9470(7) 0.3248(6) 0.3971(5) 0.019(2) Uani 1.00 1 d . . .
C(11) C 0.9685(8) 0.3442(7) 0.4773(5) 0.025(3) Uani 1.00 1 d . . .
C(12) C 0.9325(8) 0.3993(8) 0.5306(5) 0.029(3) Uani 1.00 1 d . . .
C(13) C 0.8744(8) 0.4419(7) 0.5031(6) 0.028(3) Uani 1.00 1 d . . .
C(14) C 0.8500(8) 0.4214(7) 0.4244(5) 0.022(3) Uani 1.00 1 d . . .
C(15) C 1.0348(10) 0.3447(9) 0.6139(6) 0.041(4) Uani 1.00 1 d . . .
C(16) C 0.7604(9) 0.5316(8) 0.4859(6) 0.034(3) Uani 1.00 1 d . . .
C(17) C 0.8989(8) 0.0540(6) 0.1076(5) 0.022(3) Uani 1.00 1 d . . .
C(18) C 0.9954(7) 0.0805(6) 0.1253(5) 0.019(2) Uani 1.00 1 d . . .
C(19) C 1.0386(7) 0.0135(7) 0.1028(5) 0.020(3) Uani 1.00 1 d . . .
C(20) C 0.9889(8) -0.0785(7) 0.0594(5) 0.025(3) Uani 1.00 1 d . . .
C(21) C 0.8911(8) -0.1041(6) 0.0405(5) 0.023(3) Uani 1.00 1 d . . .
C(22) C 0.8456(8) -0.0388(7) 0.0628(5) 0.023(3) Uani 1.00 1 d . . .
C(23) C 1.1643(8) -0.0692(7) 0.0822(5) 0.025(3) Uani 1.00 1 d . . .
C(24) C 0.7132(8) -0.1931(7) -0.0065(5) 0.029(3) Uani 1.00 1 d . . .
C(25) C 1.7643(9) 0.8092(8) 0.2273(6) 0.029(3) Uani 1.00 1 d . . .
C(26) C 1.7877(10) 0.9037(9) 0.2670(6) 0.039(4) Uani 1.00 1 d . . .
C(27) C 1.8736(10) 0.9618(9) 0.2697(7) 0.042(4) Uani 1.00 1 d . . .
C(28) C 1.9388(10) 0.9280(10) 0.2348(7) 0.044(4) Uani 1.00 1 d . . .
C(29) C 1.9163(10) 0.8344(10) 0.1966(7) 0.043(4) Uani 1.00 1 d . . .
C(30) C 1.8290(9) 0.7759(8) 0.1908(6) 0.034(3) Uani 1.00 1 d . . .
C(31) C 1.5598(9) 0.7522(8) 0.1700(6) 0.031(3) Uani 1.00 1 d . . .
C(32) C 1.5732(9) 0.8274(7) 0.1477(5) 0.029(3) Uani 1.00 1 d . . .
C(33) C 1.5011(10) 0.8392(9) 0.1059(6) 0.042(4) Uani 1.00 1 d . . .
C(34) C 1.4134(11) 0.7741(9) 0.0881(6) 0.044(4) Uani 1.00 1 d . . .
C(35) C 1.3961(9) 0.6993(9) 0.1118(6) 0.038(3) Uani 1.00 1 d . . .
C(36) C 1.4707(11) 0.6876(9) 0.1524(6) 0.043(4) Uani 1.00 1 d . . .
C(37) C 1.6387(9) 0.7650(8) 0.3260(5) 0.029(3) Uani 1.00 1 d . . .
C(38) C 1.5608(9) 0.7819(8) 0.3475(6) 0.033(3) Uani 1.00 1 d . . .
C(39) C 1.5546(10) 0.8064(9) 0.4255(7) 0.042(4) Uani 1.00 1 d . . .
C(40) C 1.6258(11) 0.8158(10) 0.4796(7) 0.047(4) Uani 1.00 1 d . . .
C(41) C 1.7052(11) 0.7982(9) 0.4600(6) 0.043(4) Uani 1.00 1 d . . .
C(42) C 1.7136(9) 0.7733(8) 0.3812(6) 0.034(3) Uani 1.00 1 d . . .
C(43) C 1.6474(8) 0.6196(7) 0.1841(6) 0.027(3) Uani 1.00 1 d . . .
C(44) C 1.6732(10) 0.5717(9) 0.2279(6) 0.040(4) Uani 1.00 1 d . . .
C(45) C 1.6690(11) 0.4824(9) 0.1932(7) 0.045(4) Uani 1.00 1 d . . .
C(46) C 1.6363(10) 0.4390(9) 0.1166(8) 0.044(4) Uani 1.00 1 d . . .
C(47) C 1.6068(10) 0.4825(9) 0.0704(6) 0.043(4) Uani 1.00 1 d . . .
C(48) C 1.6146(9) 0.5753(9) 0.1049(6) 0.037(3) Uani 1.00 1 d . . .
C(49) C 1.4234(9) 0.3493(8) 0.2750(6) 0.033(3) Uani 1.00 1 d . . .
C(50) C 1.4909(10) 0.4350(10) 0.3043(8) 0.046(4) Uani 1.00 1 d . . .
C(51) C 1.4659(12) 0.5048(10) 0.2888(8) 0.055(5) Uani 1.00 1 d . . .
C(52) C 1.3852(11) 0.4939(11) 0.2467(9) 0.047(4) Uani 1.00 1 d . . .
C(53) C 1.3220(11) 0.4098(12) 0.2170(8) 0.053(5) Uani 1.00 1 d . . .
C(54) C 1.3379(9) 0.3336(9) 0.2291(6) 0.035(3) Uani 1.00 1 d . . .
C(55) C 1.5013(8) 0.2043(7) 0.2151(5) 0.026(3) Uani 1.00 1 d . . .
C(56) C 1.5944(9) 0.2502(7) 0.2148(6) 0.037(3) Uani 1.00 1 d . . .
C(57) C 1.6340(8) 0.2154(7) 0.1514(5) 0.026(3) Uani 1.00 1 d . . .
C(58) C 1.5817(10) 0.1387(9) 0.0912(6) 0.040(4) Uani 1.00 1 d . . .
C(59) C 1.4885(9) 0.0955(8) 0.0907(5) 0.033(3) Uani 1.00 1 d . . .
C(60) C 1.4487(8) 0.1273(8) 0.1510(6) 0.027(3) Uani 1.00 1 d . . .
C(61) C 1.5278(9) 0.2993(8) 0.3853(6) 0.033(3) Uani 1.00 1 d . . .
C(62) C 1.5055(10) 0.3608(9) 0.4446(6) 0.042(4) Uani 1.00 1 d . . .
C(63) C 1.5549(12) 0.3869(11) 0.5202(7) 0.056(4) Uani 1.00 1 d . . .
C(64) C 1.6257(12) 0.3553(10) 0.5344(6) 0.052(4) Uani 1.00 1 d . . .
C(65) C 1.6495(9) 0.2944(10) 0.4764(7) 0.045(4) Uani 1.00 1 d . . .
C(66) C 1.6007(10) 0.2658(8) 0.3997(6) 0.040(3) Uani 1.00 1 d . . .
C(67) C 1.3466(9) 0.1762(8) 0.2994(6) 0.033(3) Uani 1.00 1 d . . .
C(68) C 1.2734(9) 0.2036(9) 0.3236(5) 0.033(3) Uani 1.00 1 d . . .
C(69) C 1.1962(9) 0.1430(10) 0.3373(6) 0.039(4) Uani 1.00 1 d . . .
C(70) C 1.1971(9) 0.0551(10) 0.3272(7) 0.042(4) Uani 1.00 1 d . . .
C(71) C 1.2707(9) 0.0280(8) 0.3041(7) 0.038(3) Uani 1.00 1 d . . .
C(72) C 1.3460(8) 0.0871(8) 0.2903(6) 0.032(3) Uani 1.00 1 d . . .
C(73) C 1.6768(12) 0.0891(11) 0.4162(8) 0.058(5) Uani 1.00 1 d . . .
C(74) C 1.5916(12) 0.0408(10) 0.3682(7) 0.051(5) Uani 1.00 1 d . . .
C(75) C 1.5806(10) 0.0281(9) 0.2894(8) 0.046(4) Uani 1.00 1 d . . .
C(76) C 1.6584(10) 0.0673(9) 0.2607(7) 0.041(4) Uani 1.00 1 d . . .
C(77) C 1.7420(12) 0.1160(10) 0.3101(9) 0.053(5) Uani 1.00 1 d . . .
C(78) C 1.7552(12) 0.1269(10) 0.3900(8) 0.056(5) Uani 1.00 1 d . . .
C(79) C 0.9074 0.1444 0.6197 0.044 Uiso 0.50 1 d R . .
C(80) C 0.9328 0.0932 0.5785 0.167 Uiso 1.00 1 d R . .
C(81) C 0.9306 0.0045 0.5099 0.190 Uiso 1.00 1 d R . .
C(82) C 0.9418 -0.0562 0.4531 0.144 Uiso 0.50 1 d R . .
H(1) H 1.7472 0.9284 0.2908 0.053 Uiso 1.00 1 c R . .
H(2) H 1.8922 1.0278 0.2969 0.048 Uiso 1.00 1 c R . .
H(3) H 1.9979 0.9665 0.2380 0.047 Uiso 1.00 1 c R . .
H(4) H 1.9596 0.8093 0.1745 0.042 Uiso 1.00 1 c R . .
H(5) H 1.8145 0.7122 0.1652 0.033 Uiso 1.00 1 c R . .
H(6) H 1.6353 0.8728 0.1636 0.036 Uiso 1.00 1 c R . .
H(7) H 1.5062 0.8875 0.0870 0.044 Uiso 1.00 1 c R . .
H(8) H 1.3596 0.7782 0.0586 0.046 Uiso 1.00 1 c R . .
H(9) H 1.3376 0.6540 0.1010 0.042 Uiso 1.00 1 c R . .
H(10) H 1.4622 0.6366 0.1679 0.039 Uiso 1.00 1 c R . .
H(11) H 1.5089 0.7759 0.3102 0.040 Uiso 1.00 1 c R . .
H(12) H 1.5008 0.8232 0.4414 0.048 Uiso 1.00 1 c R . .
H(13) H 1.6219 0.8338 0.5326 0.052 Uiso 1.00 1 c R . .
H(14) H 1.7524 0.8019 0.4968 0.056 Uiso 1.00 1 c R . .
H(15) H 1.7691 0.7662 0.3693 0.041 Uiso 1.00 1 c R . .
H(16) H 1.7000 0.6036 0.2829 0.050 Uiso 1.00 1 c R . .
H(17) H 1.6911 0.4494 0.2230 0.056 Uiso 1.00 1 c R . .
H(18) H 1.6261 0.3773 0.0896 0.055 Uiso 1.00 1 c R . .
H(19) H 1.5844 0.4562 0.0165 0.057 Uiso 1.00 1 c R . .
H(20) H 1.5986 0.6083 0.0738 0.047 Uiso 1.00 1 c R . .
H(21) H 1.5486 0.4424 0.3356 0.052 Uiso 1.00 1 c R . .
H(22) H 1.5170 0.5663 0.3112 0.073 Uiso 1.00 1 c R . .
H(23) H 1.3730 0.5449 0.2400 0.065 Uiso 1.00 1 c R . .
H(24) H 1.2618 0.4013 0.1892 0.062 Uiso 1.00 1 c R . .
H(25) H 1.2930 0.2749 0.2059 0.043 Uiso 1.00 1 c R . .
H(26) H 1.6305 0.3032 0.2553 0.035 Uiso 1.00 1 c R . .
H(27) H 1.6984 0.2444 0.1516 0.031 Uiso 1.00 1 c R . .
H(28) H 1.6080 0.1154 0.0467 0.044 Uiso 1.00 1 c R . .
H(29) H 1.4558 0.0418 0.0480 0.039 Uiso 1.00 1 c R . .
H(30) H 1.3861 0.0976 0.1512 0.031 Uiso 1.00 1 c R . .
H(31) H 1.4546 0.3810 0.4346 0.051 Uiso 1.00 1 c R . .
H(32) H 1.5451 0.4350 0.5590 0.069 Uiso 1.00 1 c R . .
H(33) H 1.6542 0.3689 0.5871 0.058 Uiso 1.00 1 c R . .
H(34) H 1.6996 0.2764 0.4874 0.043 Uiso 1.00 1 c R . .
H(35) H 1.6149 0.2220 0.3594 0.041 Uiso 1.00 1 c R . .
H(36) H 1.2744 0.2647 0.3330 0.041 Uiso 1.00 1 c R . .
H(37) H 1.1451 0.1594 0.3514 0.047 Uiso 1.00 1 c R . .
H(38) H 1.1434 0.0130 0.3354 0.045 Uiso 1.00 1 c R . .
H(39) H 1.2703 -0.0325 0.2995 0.038 Uiso 1.00 1 c R . .
H(40) H 1.3934 0.0675 0.2733 0.036 Uiso 1.00 1 c R . .
H(41) H 1.5206 -0.0068 0.2545 0.064 Uiso 1.00 1 c R . .
H(42) H 1.6524 0.0583 0.2085 0.055 Uiso 1.00 1 c R . .
H(43) H 1.7930 0.1444 0.2909 0.064 Uiso 1.00 1 c R . .
H(44) H 1.8141 0.1553 0.4229 0.073 Uiso 1.00 1 c R . .
H(45) H 0.8933 0.1838 0.5951 0.052 Uiso 0.50 1 c R . .
H(46) H 0.9548 0.1792 0.6651 0.052 Uiso 0.50 1 c R . .
H(47) H 0.8527 0.1132 0.6335 0.052 Uiso 0.50 1 c R . .
H(48) H 0.8834 0.0777 0.6045 0.225 Uiso 0.50 1 c R . .
H(49) H 0.9910 0.1169 0.6143 0.225 Uiso 1.00 1 c R . .
H(50) H 0.9252 0.1378 0.5578 0.225 Uiso 1.00 1 c R . .
H(51) H 0.8672 -0.0083 0.4873 0.401 Uiso 1.00 1 c R . .
H(52) H 0.9336 -0.0289 0.5436 0.401 Uiso 1.00 1 c R . .
H(53) H 0.9165 -0.1166 0.4526 0.245 Uiso 0.50 1 c R . .
H(54) H 0.9208 -0.0541 0.4037 0.245 Uiso 0.50 1 c R . .


loop_
_atom_site_aniso_label
_atom_site_aniso_U_11
_atom_site_aniso_U_22
_atom_site_aniso_U_33
_atom_site_aniso_U_12
_atom_site_aniso_U_13
_atom_site_aniso_U_23
V(1) 0.0238(12) 0.0210(10) 0.0247(9) 0.0094(8) 0.0020(7) 0.0064(7)
C(L1) 0.083(3) 0.109(4) 0.044(2) 0.015(3) 0.007(2) 0.034(2)
C(L2) 0.051(2) 0.053(2) 0.068(2) 0.011(2) 0.0200(19) 0.0213(18)
S(1) 0.0281(18) 0.0231(15) 0.0247(13) 0.0071(13) 0.0034(11) 0.0074(11)
S(2) 0.0307(19) 0.0266(16) 0.0308(14) 0.0129(14) 0.0002(12) 0.0100(11)
S(3) 0.0268(18) 0.0252(16) 0.0350(15) 0.0061(13) -0.0023(12) 0.0066(12)
S(4) 0.030(2) 0.0252(16) 0.0407(17) 0.0060(14) 0.0039(13) 0.0115(13)
S(5) 0.029(2) 0.0275(17) 0.0518(19) 0.0043(15) 0.0006(14) 0.0064(14)
S(6) 0.033(2) 0.0284(16) 0.0345(15) 0.0104(14) 0.0033(13) 0.0127(12)
S(7) 0.0308(19) 0.0260(16) 0.0302(15) 0.0098(13) -0.0005(12) 0.0095(11)
S(8) 0.045(2) 0.0394(19) 0.0385(17) 0.0120(17) -0.0054(14) 0.0197(14)
S(9) 0.0322(19) 0.0307(16) 0.0217(13) 0.0194(14) -0.0000(11) 0.0059(11)
S(10) 0.0285(18) 0.0271(15) 0.0252(13) 0.0135(13) 0.0039(11) 0.0092(11)
S(11) 0.039(2) 0.048(2) 0.0318(16) 0.0251(17) 0.0097(13) 0.0179(14)
S(12) 0.035(2) 0.047(2) 0.0276(15) 0.0214(16) 0.0060(13) 0.0117(13)
S(13) 0.102(4) 0.162(5) 0.035(2) 0.105(4) 0.026(2) 0.047(2)
S(14) 0.0314(19) 0.0305(16) 0.0261(14) 0.0123(14) 0.0057(12) 0.0037(11)
S(15) 0.035(2) 0.0349(17) 0.0304(15) 0.0206(15) 0.0080(13) 0.0101(12)
S(16) 0.046(2) 0.044(2) 0.0503(19) 0.0296(18) 0.0115(16) 0.0100(15)
S(17) 0.0210(17) 0.0226(14) 0.0284(14) 0.0083(12) 0.0046(11) 0.0063(11)
S(18) 0.0239(17) 0.0221(14) 0.0296(14) 0.0099(13) 0.0050(11) 0.0077(11)
S(19) 0.0241(17) 0.0242(15) 0.0262(14) 0.0095(13) 0.0036(11) 0.0070(11)
S(20) 0.0253(18) 0.0194(14) 0.0312(14) 0.0105(13) 0.0051(12) 0.0071(11)
S(21) 0.030(2) 0.0301(18) 0.0463(18) 0.0137(15) 0.0040(14) 0.0042(14)
S(22) 0.0267(18) 0.0210(15) 0.0325(15) 0.0061(13) 0.0035(12) 0.0055(11)
S(23) 0.0245(18) 0.0238(15) 0.0314(14) 0.0064(13) 0.0034(12) 0.0057(11)
S(24) 0.031(2) 0.0316(18) 0.0399(17) 0.0033(15) 0.0036(13) 0.0063(13)
P(1) 0.0276(19) 0.0284(17) 0.0247(14) 0.0144(14) 0.0028(12) 0.0090(12)
P(2) 0.0266(19) 0.0252(16) 0.0284(15) 0.0093(14) 0.0016(12) 0.0054(12)
C(1) 0.023(6) 0.024(6) 0.035(6) 0.008(5) 0.016(5) 0.022(4)
C(2) 0.016(6) 0.024(6) 0.033(6) 0.012(5) 0.004(4) 0.002(4)
C(3) 0.008(6) 0.028(6) 0.030(5) 0.003(5) -0.004(4) 0.001(4)
C(4) 0.035(8) 0.026(6) 0.035(6) 0.010(5) 0.011(5) 0.014(5)
C(5) 0.040(8) 0.021(6) 0.030(6) 0.019(6) 0.008(5) 0.002(4)
C(6) 0.035(7) 0.029(6) 0.016(5) 0.018(5) 0.009(4) 0.008(4)
C(7) 0.029(8) 0.037(7) 0.046(7) 0.010(6) 0.008(5) 0.002(5)
C(8) 0.048(9) 0.030(6) 0.028(6) 0.018(6) 0.008(5) 0.009(5)
C(9) 0.022(6) 0.021(5) 0.027(5) 0.004(5) 0.012(4) 0.008(4)
C(10) 0.012(6) 0.012(5) 0.031(5) 0.002(4) 0.004(4) 0.008(4)
C(11) 0.019(6) 0.030(6) 0.028(5) 0.010(5) 0.002(4) 0.010(4)
C(12) 0.022(7) 0.031(6) 0.025(5) 0.006(5) -0.009(4) 0.002(4)
C(13) 0.031(7) 0.016(5) 0.030(6) 0.003(5) 0.009(5) 0.003(4)
C(14) 0.031(7) 0.022(5) 0.015(5) 0.008(5) 0.009(4) 0.007(4)
C(15) 0.052(9) 0.059(9) 0.032(6) 0.035(7) 0.009(5) 0.027(6)
C(16) 0.036(8) 0.032(7) 0.030(6) 0.015(6) 0.000(5) 0.003(5)
C(17) 0.040(8) 0.012(5) 0.016(5) 0.006(5) 0.004(4) 0.008(4)
C(18) 0.020(6) 0.010(5) 0.027(5) 0.003(4) 0.007(4) 0.007(4)
C(19) 0.017(6) 0.031(6) 0.019(5) 0.011(5) 0.010(4) 0.014(4)
C(20) 0.034(7) 0.020(6) 0.019(5) 0.011(5) 0.002(4) 0.005(4)
C(21) 0.038(8) 0.009(5) 0.019(5) 0.009(5) -0.002(4) 0.000(4)
C(22) 0.026(7) 0.025(6) 0.023(5) 0.012(5) 0.003(4) 0.014(4)
C(23) 0.030(7) 0.019(5) 0.030(5) 0.015(5) 0.008(4) 0.008(4)
C(24) 0.029(7) 0.028(6) 0.020(5) -0.004(5) -0.002(4) 0.006(4)
C(25) 0.035(8) 0.039(7) 0.027(5) 0.024(6) 0.016(5) 0.019(5)
C(26) 0.038(9) 0.043(8) 0.035(6) 0.016(7) 0.000(5) 0.011(5)
C(27) 0.041(9) 0.038(8) 0.040(7) 0.012(7) 0.001(6) 0.007(5)
C(28) 0.037(9) 0.051(9) 0.035(7) -0.001(7) 0.005(6) 0.021(6)
C(29) 0.039(9) 0.076(11) 0.037(7) 0.031(8) 0.019(6) 0.038(7)
C(30) 0.026(7) 0.036(7) 0.034(6) 0.003(6) 0.004(5) 0.011(5)
C(31) 0.038(8) 0.039(7) 0.022(5) 0.017(6) 0.014(5) 0.013(5)
C(32) 0.039(8) 0.021(6) 0.020(5) 0.002(5) -0.001(4) 0.007(4)
C(33) 0.050(10) 0.040(8) 0.031(6) 0.018(7) -0.013(6) 0.010(5)
C(34) 0.063(11) 0.050(8) 0.017(5) 0.030(8) -0.002(5) 0.003(5)
C(35) 0.025(7) 0.055(8) 0.034(6) 0.012(6) 0.008(5) 0.018(6)
C(36) 0.059(10) 0.046(8) 0.029(6) 0.032(8) -0.003(6) 0.010(5)
C(37) 0.038(8) 0.037(7) 0.019(5) 0.020(6) 0.002(5) 0.012(4)
C(38) 0.030(7) 0.032(7) 0.037(6) 0.012(6) 0.008(5) 0.012(5)
C(39) 0.054(10) 0.050(8) 0.035(7) 0.024(7) 0.024(6) 0.019(6)
C(40) 0.064(11) 0.063(10) 0.029(7) 0.032(8) 0.014(6) 0.025(6)
C(41) 0.061(10) 0.048(8) 0.034(7) 0.029(7) 0.003(6) 0.023(6)
C(42) 0.034(8) 0.033(7) 0.029(6) 0.012(6) 0.006(5) 0.004(5)
C(43) 0.032(7) 0.015(5) 0.029(6) 0.007(5) 0.005(4) 0.001(4)
C(44) 0.049(9) 0.042(8) 0.035(6) 0.029(7) -0.002(5) 0.012(5)
C(45) 0.073(11) 0.031(7) 0.035(7) 0.015(7) 0.013(6) 0.020(5)
C(46) 0.042(9) 0.036(7) 0.062(9) 0.015(6) 0.022(7) 0.025(6)
C(47) 0.059(10) 0.051(9) 0.024(6) 0.029(7) 0.008(6) 0.009(5)
C(48) 0.041(8) 0.050(8) 0.024(6) 0.026(7) 0.004(5) 0.009(5)
C(49) 0.038(8) 0.030(7) 0.032(6) 0.013(6) 0.012(5) 0.011(5)
C(50) 0.044(9) 0.052(9) 0.058(8) 0.023(7) 0.017(7) 0.033(7)
C(51) 0.067(12) 0.053(9) 0.060(9) 0.027(8) 0.034(8) 0.029(7)
C(52) 0.045(10) 0.054(9) 0.067(9) 0.029(8) 0.031(8) 0.037(8)
C(53) 0.041(9) 0.091(13) 0.052(8) 0.045(9) 0.016(7) 0.036(8)
C(54) 0.026(7) 0.055(8) 0.035(6) 0.026(6) 0.010(5) 0.019(5)
C(55) 0.018(6) 0.024(6) 0.028(5) 0.003(5) -0.004(4) 0.007(4)
C(56) 0.043(9) 0.022(6) 0.025(6) -0.007(6) -0.008(5) -0.003(4)
C(57) 0.027(7) 0.029(6) 0.024(5) 0.012(5) 0.004(4) 0.008(4)
C(58) 0.044(9) 0.044(8) 0.024(6) 0.009(7) 0.002(5) 0.009(5)
C(59) 0.027(7) 0.039(7) 0.019(5) 0.007(6) -0.006(4) -0.002(4)
C(60) 0.026(7) 0.028(6) 0.026(5) 0.012(5) 0.002(4) 0.005(4)
C(61) 0.036(8) 0.033(7) 0.029(6) 0.003(6) 0.001(5) 0.018(5)
C(62) 0.048(9) 0.043(8) 0.029(6) 0.020(7) 0.010(5) 0.000(5)
C(63) 0.056(11) 0.061(10) 0.031(7) 0.011(8) -0.001(6) -0.001(6)
C(64) 0.071(12) 0.048(8) 0.018(6) -0.003(8) -0.006(6) 0.009(5)
C(65) 0.012(7) 0.065(9) 0.042(7) -0.009(6) 0.000(5) 0.021(7)
C(66) 0.043(9) 0.034(7) 0.025(6) 0.006(6) -0.004(5) -0.003(5)
C(67) 0.039(8) 0.030(7) 0.024(5) 0.010(6) 0.005(5) 0.003(4)
C(68) 0.034(8) 0.052(8) 0.018(5) 0.024(6) -0.001(5) 0.012(5)
C(69) 0.033(8) 0.062(9) 0.028(6) 0.022(7) 0.005(5) 0.017(6)
C(70) 0.031(8) 0.055(9) 0.040(7) 0.008(7) 0.013(6) 0.019(6)
C(71) 0.031(8) 0.024(6) 0.057(8) 0.007(6) -0.000(6) 0.015(5)
C(72) 0.015(7) 0.030(7) 0.041(6) 0.003(5) -0.003(5) 0.006(5)
C(73) 0.054(11) 0.068(11) 0.041(8) 0.007(9) 0.004(7) 0.019(7)
C(74) 0.075(12) 0.054(9) 0.033(7) 0.027(9) 0.021(7) 0.019(6)
C(75) 0.040(9) 0.032(7) 0.066(9) 0.020(7) 0.001(7) 0.012(6)
C(76) 0.046(10) 0.033(7) 0.054(8) 0.024(7) 0.020(7) 0.018(6)
C(77) 0.057(11) 0.046(9) 0.068(10) 0.016(8) 0.035(8) 0.027(7)
C(78) 0.059(11) 0.051(9) 0.061(9) 0.022(8) 0.017(8) 0.017(7)

#=======================================================================
#======

_computing_data_collection       Unknown
_computing_cell_refinement       Unknown
_computing_data_reduction        CrystalStructure
_computing_structure_solution    SIR92
_computing_structure_refinement  CRYSTALS
_computing_publication_material  'CrystalStructure 3.7.0'
_computing_molecular_graphics    ?

#=======================================================================
#======

# MOLECULAR GEOMETRY

_geom_special_details            
;
ENTER SPECIAL DETAILS OF THE MOLECULAR GEOMETRY
;

loop_
_geom_bond_atom_site_label_1
_geom_bond_atom_site_label_2
_geom_bond_distance
_geom_bond_publ_flag
_geom_bond_site_symmetry_1
_geom_bond_site_symmetry_2
V(1) S(1) 2.357(4) ? . .
V(1) S(2) 2.375(3) ? . .
V(1) S(9) 2.366(4) ? . .
V(1) S(10) 2.396(3) ? . .
V(1) S(17) 2.365(2) ? . .
V(1) S(18) 2.353(4) ? . .
C(L1) C(73) 1.743(15) ? . .
C(L2) C(74) 1.717(18) ? . .
S(1) C(1) 1.739(11) ? . .
S(2) C(2) 1.740(14) ? . .
S(3) C(3) 1.735(10) ? . .
S(3) C(7) 1.736(16) ? . .
S(4) C(4) 1.767(11) ? . .
S(4) C(7) 1.735(15) ? . .
S(5) C(7) 1.641(11) ? . .
S(6) C(5) 1.726(14) ? . .
S(6) C(8) 1.751(11) ? . .
S(7) C(6) 1.742(11) ? . .
S(7) C(8) 1.720(14) ? . .
S(8) C(8) 1.643(14) ? . .
S(9) C(9) 1.745(11) ? . .
S(10) C(10) 1.740(11) ? . .
S(11) C(11) 1.759(14) ? . .
S(11) C(15) 1.741(12) ? . .
S(12) C(12) 1.737(11) ? . .
S(12) C(15) 1.724(18) ? . .
S(13) C(15) 1.643(16) ? . .
S(14) C(13) 1.748(13) ? . .
S(14) C(16) 1.738(14) ? . .
S(15) C(14) 1.746(14) ? . .
S(15) C(16) 1.744(12) ? . .
S(16) C(16) 1.640(16) ? . .
S(17) C(17) 1.736(13) ? . .
S(18) C(18) 1.735(9) ? . .
S(19) C(19) 1.758(11) ? . .
S(19) C(23) 1.720(12) ? . .
S(20) C(20) 1.732(14) ? . .
S(20) C(23) 1.743(10) ? . .
S(21) C(23) 1.641(14) ? . .
S(22) C(21) 1.729(9) ? . .
S(22) C(24) 1.755(14) ? . .
S(23) C(22) 1.708(11) ? . .
S(23) C(24) 1.714(12) ? . .
S(24) C(24) 1.653(11) ? . .
P(1) C(25) 1.774(12) ? . .
P(1) C(31) 1.800(15) ? . .
P(1) C(37) 1.811(11) ? . .
P(1) C(43) 1.787(12) ? . .
P(2) C(49) 1.790(15) ? . .
P(2) C(55) 1.791(12) ? . .
P(2) C(61) 1.794(11) ? . .
P(2) C(67) 1.788(13) ? . .
C(1) C(2) 1.394(14) ? . .
C(1) C(6) 1.411(19) ? . .
C(2) C(3) 1.428(15) ? . .
C(3) C(4) 1.39(2) ? . .
C(4) C(5) 1.388(16) ? . .
C(5) C(6) 1.379(16) ? . .
C(9) C(10) 1.404(18) ? . .
C(9) C(14) 1.396(16) ? . .
C(10) C(11) 1.401(15) ? . .
C(11) C(12) 1.383(17) ? . .
C(12) C(13) 1.41(2) ? . .
C(13) C(14) 1.376(15) ? . .
C(17) C(18) 1.382(17) ? . .
C(17) C(22) 1.428(12) ? . .
C(18) C(19) 1.404(17) ? . .
C(19) C(20) 1.404(13) ? . .
C(20) C(21) 1.402(17) ? . .
C(21) C(22) 1.407(18) ? . .
C(25) C(26) 1.409(18) ? . .
C(25) C(30) 1.39(2) ? . .
C(26) C(27) 1.369(19) ? . .
C(27) C(28) 1.39(2) ? . .
C(28) C(29) 1.39(2) ? . .
C(29) C(30) 1.374(18) ? . .
C(31) C(32) 1.381(19) ? . .
C(31) C(36) 1.399(18) ? . .
C(32) C(33) 1.37(2) ? . .
C(33) C(34) 1.386(19) ? . .
C(34) C(35) 1.39(2) ? . .
C(35) C(36) 1.39(2) ? . .
C(37) C(38) 1.36(2) ? . .
C(37) C(42) 1.397(18) ? . .
C(38) C(39) 1.394(18) ? . .
C(39) C(40) 1.34(2) ? . .
C(40) C(41) 1.38(2) ? . .
C(41) C(42) 1.416(17) ? . .
C(43) C(44) 1.38(2) ? . .
C(43) C(48) 1.383(14) ? . .
C(44) C(45) 1.38(2) ? . .
C(45) C(46) 1.341(17) ? . .
C(46) C(47) 1.38(2) ? . .
C(47) C(48) 1.41(2) ? . .
C(49) C(50) 1.386(17) ? . .
C(49) C(54) 1.390(19) ? . .
C(50) C(51) 1.39(2) ? . .
C(51) C(52) 1.32(2) ? . .
C(52) C(53) 1.34(2) ? . .
C(53) C(54) 1.41(2) ? . .
C(55) C(56) 1.407(17) ? . .
C(55) C(60) 1.398(12) ? . .
C(56) C(57) 1.408(17) ? . .
C(57) C(58) 1.357(13) ? . .
C(58) C(59) 1.395(19) ? . .
C(59) C(60) 1.353(17) ? . .
C(61) C(62) 1.382(18) ? . .
C(61) C(66) 1.40(2) ? . .
C(62) C(63) 1.393(18) ? . .
C(63) C(64) 1.35(2) ? . .
C(64) C(65) 1.37(2) ? . .
C(65) C(66) 1.402(17) ? . .
C(67) C(68) 1.38(2) ? . .
C(67) C(72) 1.41(2) ? . .
C(68) C(69) 1.411(19) ? . .
C(69) C(70) 1.39(2) ? . .
C(70) C(71) 1.37(2) ? . .
C(71) C(72) 1.381(18) ? . .
C(73) C(74) 1.36(2) ? . .
C(73) C(78) 1.39(2) ? . .
C(74) C(75) 1.39(2) ? . .
C(75) C(76) 1.42(2) ? . .
C(76) C(77) 1.355(19) ? . .
C(77) C(78) 1.42(2) ? . .
C(79) C(80) 1.129 ? . .
C(80) C(81) 1.592 ? . .
C(81) C(82) 1.265 ? . .
C(81) C(82) 1.846 ? . 75602
C(26) H(1) 0.905 ? . .
C(27) H(2) 0.980 ? . .
C(28) H(3) 0.927 ? . .
C(29) H(4) 0.933 ? . .
C(30) H(5) 0.949 ? . .
C(32) H(6) 0.973 ? . .
C(33) H(7) 0.944 ? . .
C(34) H(8) 0.965 ? . .
C(35) H(9) 0.940 ? . .
C(36) H(10) 0.943 ? . .
C(38) H(11) 0.954 ? . .
C(39) H(12) 0.977 ? . .
C(40) H(13) 0.945 ? . .
C(41) H(14) 0.913 ? . .
C(42) H(15) 0.922 ? . .
C(44) H(16) 0.971 ? . .
C(45) H(17) 0.976 ? . .
C(46) H(18) 0.935 ? . .
C(47) H(19) 0.938 ? . .
C(48) H(20) 0.957 ? . .
C(50) H(21) 0.957 ? . .
C(51) H(22) 1.014 ? . .
C(52) H(23) 0.942 ? . .
C(53) H(24) 0.953 ? . .
C(54) H(25) 0.943 ? . .
C(56) H(26) 0.929 ? . .
C(57) H(27) 0.962 ? . .
C(58) H(28) 0.969 ? . .
C(59) H(29) 0.943 ? . .
C(60) H(30) 0.941 ? . .
C(62) H(31) 0.944 ? . .
C(63) H(32) 0.945 ? . .
C(64) H(33) 0.957 ? . .
C(65) H(34) 0.914 ? . .
C(66) H(35) 0.951 ? . .
C(68) H(36) 0.953 ? . .
C(69) H(37) 0.925 ? . .
C(70) H(38) 0.969 ? . .
C(71) H(39) 0.962 ? . .
C(72) H(40) 0.912 ? . .
C(75) H(41) 0.968 ? . .
C(76) H(42) 0.922 ? . .
C(77) H(43) 0.950 ? . .
C(78) H(44) 0.933 ? . .
C(79) H(45) 0.950 ? . .
C(79) H(46) 0.950 ? . .
C(79) H(47) 0.950 ? . .
C(79) H(48) 0.983 ? . .
C(79) H(50) 1.184 ? . .
C(80) H(48) 0.950 ? . .
C(80) H(49) 0.950 ? . .
C(80) H(50) 0.950 ? . .
C(81) H(51) 0.950 ? . .
C(81) H(52) 0.950 ? . .
C(82) H(53) 0.950 ? . .
C(82) H(54) 0.950 ? . .

loop_
_geom_angle_atom_site_label_1
_geom_angle_atom_site_label_2
_geom_angle_atom_site_label_3
_geom_angle
_geom_angle_publ_flag
_geom_angle_site_symmetry_1
_geom_angle_site_symmetry_2
_geom_angle_site_symmetry_3
S(1) V(1) S(2) 84.42(12) ? . . .
S(1) V(1) S(9) 80.53(13) ? . . .
S(1) V(1) S(10) 163.05(15) ? . . .
S(1) V(1) S(17) 81.95(11) ? . . .
S(1) V(1) S(18) 113.41(13) ? . . .
S(2) V(1) S(9) 97.68(12) ? . . .
S(2) V(1) S(10) 94.56(11) ? . . .
S(2) V(1) S(17) 158.12(13) ? . . .
S(2) V(1) S(18) 85.13(13) ? . . .
S(9) V(1) S(10) 82.86(13) ? . . .
S(9) V(1) S(17) 96.87(12) ? . . .
S(9) V(1) S(18) 166.03(14) ? . . .
S(10) V(1) S(17) 103.41(13) ? . . .
S(10) V(1) S(18) 83.28(13) ? . . .
S(17) V(1) S(18) 84.69(12) ? . . .
V(1) S(1) C(1) 105.3(4) ? . . .
V(1) S(2) C(2) 104.7(3) ? . . .
C(3) S(3) C(7) 97.5(6) ? . . .
C(4) S(4) C(7) 97.1(6) ? . . .
C(5) S(6) C(8) 96.2(6) ? . . .
C(6) S(7) C(8) 96.9(5) ? . . .
V(1) S(9) C(9) 108.2(4) ? . . .
V(1) S(10) C(10) 107.6(4) ? . . .
C(11) S(11) C(15) 96.8(7) ? . . .
C(12) S(12) C(15) 96.8(6) ? . . .
C(13) S(14) C(16) 97.1(6) ? . . .
C(14) S(15) C(16) 96.7(6) ? . . .
V(1) S(17) C(17) 106.2(3) ? . . .
V(1) S(18) C(18) 106.5(4) ? . . .
C(19) S(19) C(23) 97.9(5) ? . . .
C(20) S(20) C(23) 97.4(5) ? . . .
C(21) S(22) C(24) 96.3(5) ? . . .
C(22) S(23) C(24) 98.3(6) ? . . .
C(25) P(1) C(31) 111.9(6) ? . . .
C(25) P(1) C(37) 106.6(5) ? . . .
C(25) P(1) C(43) 109.8(6) ? . . .
C(31) P(1) C(37) 108.5(6) ? . . .
C(31) P(1) C(43) 107.7(5) ? . . .
C(37) P(1) C(43) 112.3(6) ? . . .
C(49) P(2) C(55) 108.3(6) ? . . .
C(49) P(2) C(61) 108.2(5) ? . . .
C(49) P(2) C(67) 110.1(6) ? . . .
C(55) P(2) C(61) 112.2(6) ? . . .
C(55) P(2) C(67) 111.6(5) ? . . .
C(61) P(2) C(67) 106.3(5) ? . . .
S(1) C(1) C(2) 120.2(10) ? . . .
S(1) C(1) C(6) 121.3(7) ? . . .
C(2) C(1) C(6) 118.2(10) ? . . .
S(2) C(2) C(1) 121.4(9) ? . . .
S(2) C(2) C(3) 120.0(8) ? . . .
C(1) C(2) C(3) 118.6(12) ? . . .
S(3) C(3) C(2) 123.1(10) ? . . .
S(3) C(3) C(4) 116.4(8) ? . . .
C(2) C(3) C(4) 120.5(9) ? . . .
S(4) C(4) C(3) 115.0(8) ? . . .
S(4) C(4) C(5) 123.2(11) ? . . .
C(3) C(4) C(5) 121.7(10) ? . . .
S(6) C(5) C(4) 126.1(9) ? . . .
S(6) C(5) C(6) 116.9(9) ? . . .
C(4) C(5) C(6) 117.0(12) ? . . .
S(7) C(6) C(1) 120.3(8) ? . . .
S(7) C(6) C(5) 115.7(10) ? . . .
C(1) C(6) C(5) 124.0(10) ? . . .
S(3) C(7) S(4) 114.0(6) ? . . .
S(3) C(7) S(5) 123.1(9) ? . . .
S(4) C(7) S(5) 123.0(9) ? . . .
S(6) C(8) S(7) 114.3(8) ? . . .
S(6) C(8) S(8) 121.4(8) ? . . .
S(7) C(8) S(8) 124.3(6) ? . . .
S(9) C(9) C(10) 120.0(8) ? . . .
S(9) C(9) C(14) 120.3(10) ? . . .
C(10) C(9) C(14) 119.7(10) ? . . .
S(10) C(10) C(9) 120.1(8) ? . . .
S(10) C(10) C(11) 122.8(10) ? . . .
C(9) C(10) C(11) 116.9(10) ? . . .
S(11) C(11) C(10) 121.4(9) ? . . .
S(11) C(11) C(12) 114.8(9) ? . . .
C(10) C(11) C(12) 123.7(12) ? . . .
S(12) C(12) C(11) 117.0(10) ? . . .
S(12) C(12) C(13) 124.5(9) ? . . .
C(11) C(12) C(13) 118.3(10) ? . . .
S(14) C(13) C(12) 125.5(8) ? . . .
S(14) C(13) C(14) 115.8(10) ? . . .
C(12) C(13) C(14) 118.8(11) ? . . .
S(15) C(14) C(9) 120.9(8) ? . . .
S(15) C(14) C(13) 116.5(9) ? . . .
C(9) C(14) C(13) 122.5(12) ? . . .
S(11) C(15) S(12) 114.4(8) ? . . .
S(11) C(15) S(13) 123.5(10) ? . . .
S(12) C(15) S(13) 122.1(7) ? . . .
S(14) C(16) S(15) 113.7(8) ? . . .
S(14) C(16) S(16) 124.7(6) ? . . .
S(15) C(16) S(16) 121.3(8) ? . . .
S(17) C(17) C(18) 121.1(7) ? . . .
S(17) C(17) C(22) 118.9(9) ? . . .
C(18) C(17) C(22) 120.0(11) ? . . .
S(18) C(18) C(17) 121.1(9) ? . . .
S(18) C(18) C(19) 120.3(8) ? . . .
C(17) C(18) C(19) 118.6(8) ? . . .
S(19) C(19) C(18) 122.3(7) ? . . .
S(19) C(19) C(20) 114.5(9) ? . . .
C(18) C(19) C(20) 123.2(10) ? . . .
S(20) C(20) C(19) 116.4(9) ? . . .
S(20) C(20) C(21) 126.1(7) ? . . .
C(19) C(20) C(21) 117.5(11) ? . . .
S(22) C(21) C(20) 123.3(9) ? . . .
S(22) C(21) C(22) 116.1(8) ? . . .
C(20) C(21) C(22) 120.6(8) ? . . .
S(23) C(22) C(17) 124.4(10) ? . . .
S(23) C(22) C(21) 115.5(7) ? . . .
C(17) C(22) C(21) 119.9(10) ? . . .
S(19) C(23) S(20) 113.8(7) ? . . .
S(19) C(23) S(21) 124.1(6) ? . . .
S(20) C(23) S(21) 122.1(6) ? . . .
S(22) C(24) S(23) 113.7(6) ? . . .
S(22) C(24) S(24) 121.8(7) ? . . .
S(23) C(24) S(24) 124.5(8) ? . . .
P(1) C(25) C(26) 118.9(10) ? . . .
P(1) C(25) C(30) 121.8(9) ? . . .
C(26) C(25) C(30) 119.2(11) ? . . .
C(25) C(26) C(27) 120.3(14) ? . . .
C(26) C(27) C(28) 120.3(12) ? . . .
C(27) C(28) C(29) 119.5(12) ? . . .
C(28) C(29) C(30) 120.7(14) ? . . .
C(25) C(30) C(29) 120.0(12) ? . . .
P(1) C(31) C(32) 122.2(9) ? . . .
P(1) C(31) C(36) 117.5(11) ? . . .
C(32) C(31) C(36) 120.2(13) ? . . .
C(31) C(32) C(33) 121.3(11) ? . . .
C(32) C(33) C(34) 117.8(14) ? . . .
C(33) C(34) C(35) 122.8(15) ? . . .
C(34) C(35) C(36) 118.3(12) ? . . .
C(31) C(36) C(35) 119.5(14) ? . . .
P(1) C(37) C(38) 122.3(9) ? . . .
P(1) C(37) C(42) 116.8(10) ? . . .
C(38) C(37) C(42) 120.9(10) ? . . .
C(37) C(38) C(39) 119.8(13) ? . . .
C(38) C(39) C(40) 120.5(15) ? . . .
C(39) C(40) C(41) 121.4(12) ? . . .
C(40) C(41) C(42) 119.3(13) ? . . .
C(37) C(42) C(41) 118.1(13) ? . . .
P(1) C(43) C(44) 122.5(7) ? . . .
P(1) C(43) C(48) 118.8(11) ? . . .
C(44) C(43) C(48) 118.7(11) ? . . .
C(43) C(44) C(45) 120.8(10) ? . . .
C(44) C(45) C(46) 120.5(15) ? . . .
C(45) C(46) C(47) 121.2(13) ? . . .
C(46) C(47) C(48) 118.7(10) ? . . .
C(43) C(48) C(47) 120.0(13) ? . . .
P(2) C(49) C(50) 118.9(11) ? . . .
P(2) C(49) C(54) 119.6(9) ? . . .
C(50) C(49) C(54) 121.4(14) ? . . .
C(49) C(50) C(51) 116.2(14) ? . . .
C(50) C(51) C(52) 124.8(14) ? . . .
C(51) C(52) C(53) 117.9(18) ? . . .
C(52) C(53) C(54) 123.1(15) ? . . .
C(49) C(54) C(53) 116.6(11) ? . . .
P(2) C(55) C(56) 118.0(7) ? . . .
P(2) C(55) C(60) 122.1(9) ? . . .
C(56) C(55) C(60) 119.4(10) ? . . .
C(55) C(56) C(57) 119.4(8) ? . . .
C(56) C(57) C(58) 119.7(11) ? . . .
C(57) C(58) C(59) 120.5(12) ? . . .
C(58) C(59) C(60) 121.1(9) ? . . .
C(55) C(60) C(59) 119.9(11) ? . . .
P(2) C(61) C(62) 116.0(11) ? . . .
P(2) C(61) C(66) 122.4(8) ? . . .
C(62) C(61) C(66) 121.2(11) ? . . .
C(61) C(62) C(63) 118.7(15) ? . . .
C(62) C(63) C(64) 120.4(14) ? . . .
C(63) C(64) C(65) 122.0(12) ? . . .
C(64) C(65) C(66) 119.2(15) ? . . .
C(61) C(66) C(65) 118.4(12) ? . . .
P(2) C(67) C(68) 121.0(10) ? . . .
P(2) C(67) C(72) 118.7(11) ? . . .
C(68) C(67) C(72) 119.6(12) ? . . .
C(67) C(68) C(69) 121.1(13) ? . . .
C(68) C(69) C(70) 118.0(14) ? . . .
C(69) C(70) C(71) 121.0(13) ? . . .
C(70) C(71) C(72) 121.0(13) ? . . .
C(67) C(72) C(71) 119.2(13) ? . . .
C(L1) C(73) C(74) 118.7(13) ? . . .
C(L1) C(73) C(78) 118.5(11) ? . . .
C(74) C(73) C(78) 122.7(14) ? . . .
C(L2) C(74) C(73) 122.0(11) ? . . .
C(L2) C(74) C(75) 118.1(11) ? . . .
C(73) C(74) C(75) 119.8(15) ? . . .
C(74) C(75) C(76) 119.2(12) ? . . .
C(75) C(76) C(77) 119.6(14) ? . . .
C(76) C(77) C(78) 122.0(16) ? . . .
C(73) C(78) C(77) 116.6(13) ? . . .
C(79) C(80) C(81) 160.1 ? . . .
C(80) C(81) C(82) 169.5 ? . . .
C(80) C(81) C(82) 80.7 ? . . 75602
C(82) C(81) C(82) 91.3 ? . . 75602
C(81) C(82) C(81) 88.7 ? . . 75602
C(25) C(26) H(1) 122.1 ? . . .
C(27) C(26) H(1) 117.6 ? . . .
C(26) C(27) H(2) 122.4 ? . . .
C(28) C(27) H(2) 117.3 ? . . .
C(27) C(28) H(3) 121.0 ? . . .
C(29) C(28) H(3) 119.5 ? . . .
C(28) C(29) H(4) 121.6 ? . . .
C(30) C(29) H(4) 117.8 ? . . .
C(25) C(30) H(5) 119.8 ? . . .
C(29) C(30) H(5) 120.1 ? . . .
C(31) C(32) H(6) 118.0 ? . . .
C(33) C(32) H(6) 120.7 ? . . .
C(32) C(33) H(7) 125.4 ? . . .
C(34) C(33) H(7) 116.8 ? . . .
C(33) C(34) H(8) 122.0 ? . . .
C(35) C(34) H(8) 115.2 ? . . .
C(34) C(35) H(9) 125.1 ? . . .
C(36) C(35) H(9) 116.6 ? . . .
C(31) C(36) H(10) 119.7 ? . . .
C(35) C(36) H(10) 120.8 ? . . .
C(37) C(38) H(11) 121.7 ? . . .
C(39) C(38) H(11) 118.5 ? . . .
C(38) C(39) H(12) 119.6 ? . . .
C(40) C(39) H(12) 119.6 ? . . .
C(39) C(40) H(13) 120.2 ? . . .
C(41) C(40) H(13) 118.3 ? . . .
C(40) C(41) H(14) 121.2 ? . . .
C(42) C(41) H(14) 119.5 ? . . .
C(37) C(42) H(15) 123.4 ? . . .
C(41) C(42) H(15) 118.5 ? . . .
C(43) C(44) H(16) 119.0 ? . . .
C(45) C(44) H(16) 119.9 ? . . .
C(44) C(45) H(17) 121.5 ? . . .
C(46) C(45) H(17) 118.0 ? . . .
C(45) C(46) H(18) 125.6 ? . . .
C(47) C(46) H(18) 113.1 ? . . .
C(46) C(47) H(19) 125.0 ? . . .
C(48) C(47) H(19) 116.2 ? . . .
C(43) C(48) H(20) 119.4 ? . . .
C(47) C(48) H(20) 120.6 ? . . .
C(49) C(50) H(21) 118.3 ? . . .
C(51) C(50) H(21) 125.3 ? . . .
C(50) C(51) H(22) 113.8 ? . . .
C(52) C(51) H(22) 121.4 ? . . .
C(51) C(52) H(23) 119.6 ? . . .
C(53) C(52) H(23) 122.4 ? . . .
C(52) C(53) H(24) 119.1 ? . . .
C(54) C(53) H(24) 117.7 ? . . .
C(49) C(54) H(25) 122.3 ? . . .
C(53) C(54) H(25) 121.1 ? . . .
C(55) C(56) H(26) 121.6 ? . . .
C(57) C(56) H(26) 119.0 ? . . .
C(56) C(57) H(27) 120.1 ? . . .
C(58) C(57) H(27) 120.1 ? . . .
C(57) C(58) H(28) 120.1 ? . . .
C(59) C(58) H(28) 119.3 ? . . .
C(58) C(59) H(29) 116.9 ? . . .
C(60) C(59) H(29) 121.9 ? . . .
C(55) C(60) H(30) 118.9 ? . . .
C(59) C(60) H(30) 121.2 ? . . .
C(61) C(62) H(31) 120.5 ? . . .
C(63) C(62) H(31) 120.6 ? . . .
C(62) C(63) H(32) 117.8 ? . . .
C(64) C(63) H(32) 120.9 ? . . .
C(63) C(64) H(33) 118.8 ? . . .
C(65) C(64) H(33) 118.6 ? . . .
C(64) C(65) H(34) 120.1 ? . . .
C(66) C(65) H(34) 120.5 ? . . .
C(61) C(66) H(35) 121.4 ? . . .
C(65) C(66) H(35) 120.0 ? . . .
C(67) C(68) H(36) 120.8 ? . . .
C(69) C(68) H(36) 118.1 ? . . .
C(68) C(69) H(37) 122.3 ? . . .
C(70) C(69) H(37) 119.6 ? . . .
C(69) C(70) H(38) 118.1 ? . . .
C(71) C(70) H(38) 120.9 ? . . .
C(70) C(71) H(39) 119.0 ? . . .
C(72) C(71) H(39) 120.0 ? . . .
C(67) C(72) H(40) 120.7 ? . . .
C(71) C(72) H(40) 120.0 ? . . .
C(74) C(75) H(41) 120.6 ? . . .
C(76) C(75) H(41) 120.3 ? . . .
C(75) C(76) H(42) 120.0 ? . . .
C(77) C(76) H(42) 120.4 ? . . .
C(76) C(77) H(43) 119.0 ? . . .
C(78) C(77) H(43) 119.0 ? . . .
C(73) C(78) H(44) 121.5 ? . . .
C(77) C(78) H(44) 121.8 ? . . .
C(80) C(79) H(45) 109.5 ? . . .
C(80) C(79) H(46) 109.5 ? . . .
C(80) C(79) H(47) 109.5 ? . . .
C(80) C(79) H(48) 52.9 ? . . .
C(80) C(79) H(50) 48.4 ? . . .
H(45) C(79) H(46) 109.5 ? . . .
H(45) C(79) H(47) 109.5 ? . . .
H(45) C(79) H(48) 131.1 ? . . .
H(45) C(79) H(50) 61.4 ? . . .
H(46) C(79) H(47) 109.5 ? . . .
H(46) C(79) H(48) 119.4 ? . . .
H(46) C(79) H(50) 119.9 ? . . .
H(47) C(79) H(48) 57.0 ? . . .
H(47) C(79) H(50) 130.1 ? . . .
H(48) C(79) H(50) 90.9 ? . . .
C(79) C(80) H(48) 55.6 ? . . .
C(79) C(80) H(49) 89.1 ? . . .
C(79) C(80) H(50) 68.8 ? . . .
C(81) C(80) H(48) 109.5 ? . . .
C(81) C(80) H(49) 109.5 ? . . .
C(81) C(80) H(50) 109.5 ? . . .
H(48) C(80) H(49) 109.5 ? . . .
H(48) C(80) H(50) 109.5 ? . . .
H(49) C(80) H(50) 109.5 ? . . .
C(80) C(81) H(51) 93.0 ? . . .
C(80) C(81) H(52) 93.0 ? . . .
C(82) C(81) H(51) 93.0 ? . . .
C(82) C(81) H(52) 93.0 ? . . .
C(82) C(81) H(51) 164.9 ? 75602 . .
C(82) C(81) H(52) 84.7 ? 75602 . .
H(51) C(81) H(52) 109.5 ? . . .
C(81) C(82) H(53) 114.4 ? . . .
C(81) C(82) H(54) 114.4 ? . . .
C(81) C(82) H(53) 114.4 ? 75602 . .
C(81) C(82) H(54) 114.4 ? 75602 . .
H(53) C(82) H(54) 109.5 ? . . .
C(79) H(48) C(80) 71.4 ? . . .
C(79) H(50) C(80) 62.7 ? . . .

loop_
_geom_torsion_atom_site_label_1
_geom_torsion_atom_site_label_2
_geom_torsion_atom_site_label_3
_geom_torsion_atom_site_label_4
_geom_torsion
_geom_torsion_publ_flag
_geom_torsion_site_symmetry_1
_geom_torsion_site_symmetry_2
_geom_torsion_site_symmetry_3
_geom_torsion_site_symmetry_4
S(1) V(1) S(2) C(2) 15.0(4) ? . . . .
S(2) V(1) S(1) C(1) -17.0(4) ? . . . .
S(1) V(1) S(9) C(9) -167.2(3) ? . . . .
S(9) V(1) S(1) C(1) 81.7(4) ? . . . .
S(1) V(1) S(10) C(10) 3.1(5) ? . . . .
S(10) V(1) S(1) C(1) 70.3(6) ? . . . .
S(1) V(1) S(17) C(17) 118.6(4) ? . . . .
S(17) V(1) S(1) C(1) -179.9(4) ? . . . .
S(1) V(1) S(18) C(18) -84.3(4) ? . . . .
S(18) V(1) S(1) C(1) -99.2(4) ? . . . .
S(2) V(1) S(9) C(9) -84.2(4) ? . . . .
S(9) V(1) S(2) C(2) -64.7(4) ? . . . .
S(2) V(1) S(10) C(10) 88.9(3) ? . . . .
S(10) V(1) S(2) C(2) -148.1(4) ? . . . .
S(2) V(1) S(17) C(17) 66.6(6) ? . . . .
S(17) V(1) S(2) C(2) 66.6(6) ? . . . .
S(2) V(1) S(18) C(18) -166.0(4) ? . . . .
S(18) V(1) S(2) C(2) 129.1(4) ? . . . .
S(9) V(1) S(10) C(10) -8.3(3) ? . . . .
S(10) V(1) S(9) C(9) 9.5(3) ? . . . .
S(9) V(1) S(17) C(17) -162.0(4) ? . . . .
S(17) V(1) S(9) C(9) 112.2(3) ? . . . .
S(9) V(1) S(18) C(18) 91.7(6) ? . . . .
S(18) V(1) S(9) C(9) 16.6(6) ? . . . .
S(10) V(1) S(17) C(17) -77.7(4) ? . . . .
S(17) V(1) S(10) C(10) -103.7(3) ? . . . .
S(10) V(1) S(18) C(18) 98.8(4) ? . . . .
S(18) V(1) S(10) C(10) 173.4(3) ? . . . .
S(17) V(1) S(18) C(18) -5.4(4) ? . . . .
S(18) V(1) S(17) C(17) 4.1(4) ? . . . .
V(1) S(1) C(1) C(2) 17.4(11) ? . . . .
V(1) S(1) C(1) C(6) -168.5(9) ? . . . .
V(1) S(2) C(2) C(1) -10.1(11) ? . . . .
V(1) S(2) C(2) C(3) 168.4(8) ? . . . .
C(3) S(3) C(7) S(4) -1.5(9) ? . . . .
C(3) S(3) C(7) S(5) 178.4(9) ? . . . .
C(7) S(3) C(3) C(2) 178.8(10) ? . . . .
C(7) S(3) C(3) C(4) 0.3(9) ? . . . .
C(4) S(4) C(7) S(3) 1.9(9) ? . . . .
C(4) S(4) C(7) S(5) -178.0(9) ? . . . .
C(7) S(4) C(4) C(3) -1.7(11) ? . . . .
C(7) S(4) C(4) C(5) -179.1(11) ? . . . .
C(5) S(6) C(8) S(7) -1.4(8) ? . . . .
C(5) S(6) C(8) S(8) 177.6(8) ? . . . .
C(8) S(6) C(5) C(4) -178.4(12) ? . . . .
C(8) S(6) C(5) C(6) 1.0(11) ? . . . .
C(6) S(7) C(8) S(6) 1.3(8) ? . . . .
C(6) S(7) C(8) S(8) -177.7(9) ? . . . .
C(8) S(7) C(6) C(1) 179.7(8) ? . . . .
C(8) S(7) C(6) C(5) -0.6(10) ? . . . .
V(1) S(9) C(9) C(10) -9.8(9) ? . . . .
V(1) S(9) C(9) C(14) 168.4(7) ? . . . .
V(1) S(10) C(10) C(9) 5.6(9) ? . . . .
V(1) S(10) C(10) C(11) -169.7(8) ? . . . .
C(11) S(11) C(15) S(12) -0.8(8) ? . . . .
C(11) S(11) C(15) S(13) -179.9(6) ? . . . .
C(15) S(11) C(11) C(10) -179.0(9) ? . . . .
C(15) S(11) C(11) C(12) -2.0(10) ? . . . .
C(12) S(12) C(15) S(11) 2.6(8) ? . . . .
C(12) S(12) C(15) S(13) -178.3(9) ? . . . .
C(15) S(12) C(12) C(11) -4.1(10) ? . . . .
C(15) S(12) C(12) C(13) -179.7(7) ? . . . .
C(13) S(14) C(16) S(15) -4.2(7) ? . . . .
C(13) S(14) C(16) S(16) -178.2(8) ? . . . .
C(16) S(14) C(13) C(12) -176.0(10) ? . . . .
C(16) S(14) C(13) C(14) 2.5(10) ? . . . .
C(14) S(15) C(16) S(14) 4.3(7) ? . . . .
C(14) S(15) C(16) S(16) 178.4(7) ? . . . .
C(16) S(15) C(14) C(9) -179.4(9) ? . . . .
C(16) S(15) C(14) C(13) -2.7(9) ? . . . .
V(1) S(17) C(17) C(18) -1.6(10) ? . . . .
V(1) S(17) C(17) C(22) 179.9(7) ? . . . .
V(1) S(18) C(18) C(17) 6.6(10) ? . . . .
V(1) S(18) C(18) C(19) -174.4(8) ? . . . .
C(19) S(19) C(23) S(20) 2.3(7) ? . . . .
C(19) S(19) C(23) S(21) -177.9(8) ? . . . .
C(23) S(19) C(19) C(18) 179.9(8) ? . . . .
C(23) S(19) C(19) C(20) -1.8(10) ? . . . .
C(20) S(20) C(23) S(19) -2.0(8) ? . . . .
C(20) S(20) C(23) S(21) 178.1(8) ? . . . .
C(23) S(20) C(20) C(19) 0.8(10) ? . . . .
C(23) S(20) C(20) C(21) -177.6(10) ? . . . .
C(21) S(22) C(24) S(23) 2.8(7) ? . . . .
C(21) S(22) C(24) S(24) -176.8(8) ? . . . .
C(24) S(22) C(21) C(20) 177.4(10) ? . . . .
C(24) S(22) C(21) C(22) -2.8(10) ? . . . .
C(22) S(23) C(24) S(22) -1.9(8) ? . . . .
C(22) S(23) C(24) S(24) 177.7(8) ? . . . .
C(24) S(23) C(22) C(17) -175.6(10) ? . . . .
C(24) S(23) C(22) C(21) 0.0(10) ? . . . .
C(25) P(1) C(31) C(32) -14.7(12) ? . . . .
C(25) P(1) C(31) C(36) 168.4(9) ? . . . .
C(31) P(1) C(25) C(26) 68.3(11) ? . . . .
C(31) P(1) C(25) C(30) -112.2(12) ? . . . .
C(25) P(1) C(37) C(38) 129.8(11) ? . . . .
C(25) P(1) C(37) C(42) -47.5(12) ? . . . .
C(37) P(1) C(25) C(26) -50.1(13) ? . . . .
C(37) P(1) C(25) C(30) 129.3(11) ? . . . .
C(25) P(1) C(43) C(44) 90.1(12) ? . . . .
C(25) P(1) C(43) C(48) -90.9(11) ? . . . .
C(43) P(1) C(25) C(26) -172.1(10) ? . . . .
C(43) P(1) C(25) C(30) 7.4(13) ? . . . .
C(31) P(1) C(37) C(38) 9.1(12) ? . . . .
C(31) P(1) C(37) C(42) -168.2(9) ? . . . .
C(37) P(1) C(31) C(32) 102.6(10) ? . . . .
C(37) P(1) C(31) C(36) -74.3(10) ? . . . .
C(31) P(1) C(43) C(44) -147.8(11) ? . . . .
C(31) P(1) C(43) C(48) 31.2(12) ? . . . .
C(43) P(1) C(31) C(32) -135.6(10) ? . . . .
C(43) P(1) C(31) C(36) 47.5(11) ? . . . .
C(37) P(1) C(43) C(44) -28.4(13) ? . . . .
C(37) P(1) C(43) C(48) 150.6(10) ? . . . .
C(43) P(1) C(37) C(38) -109.8(11) ? . . . .
C(43) P(1) C(37) C(42) 72.8(11) ? . . . .
C(49) P(2) C(55) C(56) 75.0(12) ? . . . .
C(49) P(2) C(55) C(60) -96.6(12) ? . . . .
C(55) P(2) C(49) C(50) -89.3(11) ? . . . .
C(55) P(2) C(49) C(54) 87.3(11) ? . . . .
C(49) P(2) C(61) C(62) 43.8(12) ? . . . .
C(49) P(2) C(61) C(66) -143.2(11) ? . . . .
C(61) P(2) C(49) C(50) 32.6(13) ? . . . .
C(61) P(2) C(49) C(54) -150.9(10) ? . . . .
C(49) P(2) C(67) C(68) -27.2(11) ? . . . .
C(49) P(2) C(67) C(72) 161.7(8) ? . . . .
C(67) P(2) C(49) C(50) 148.4(11) ? . . . .
C(67) P(2) C(49) C(54) -35.1(12) ? . . . .
C(55) P(2) C(61) C(62) 163.3(10) ? . . . .
C(55) P(2) C(61) C(66) -23.7(13) ? . . . .
C(61) P(2) C(55) C(56) -44.4(13) ? . . . .
C(61) P(2) C(55) C(60) 144.0(11) ? . . . .
C(55) P(2) C(67) C(68) -147.6(9) ? . . . .
C(55) P(2) C(67) C(72) 41.3(11) ? . . . .
C(67) P(2) C(55) C(56) -163.6(11) ? . . . .
C(67) P(2) C(55) C(60) 24.8(14) ? . . . .
C(61) P(2) C(67) C(68) 89.8(11) ? . . . .
C(61) P(2) C(67) C(72) -81.3(10) ? . . . .
C(67) P(2) C(61) C(62) -74.5(12) ? . . . .
C(67) P(2) C(61) C(66) 98.5(12) ? . . . .
S(1) C(1) C(2) S(2) -5.0(15) ? . . . .
S(1) C(1) C(2) C(3) 176.4(9) ? . . . .
S(1) C(1) C(6) S(7) 4.7(14) ? . . . .
S(1) C(1) C(6) C(5) -174.9(10) ? . . . .
C(2) C(1) C(6) S(7) 178.9(9) ? . . . .
C(2) C(1) C(6) C(5) -0.7(17) ? . . . .
C(6) C(1) C(2) S(2) -179.3(9) ? . . . .
C(6) C(1) C(2) C(3) 2.1(17) ? . . . .
S(2) C(2) C(3) S(3) 1.2(15) ? . . . .
S(2) C(2) C(3) C(4) 179.7(8) ? . . . .
C(1) C(2) C(3) S(3) 179.8(6) ? . . . .
C(1) C(2) C(3) C(4) -1.8(17) ? . . . .
S(3) C(3) C(4) S(4) 1.0(13) ? . . . .
S(3) C(3) C(4) C(5) 178.4(10) ? . . . .
C(2) C(3) C(4) S(4) -177.6(9) ? . . . .
C(2) C(3) C(4) C(5) -0.2(15) ? . . . .
S(4) C(4) C(5) S(6) -1.9(18) ? . . . .
S(4) C(4) C(5) C(6) 178.8(9) ? . . . .
C(3) C(4) C(5) S(6) -179.1(10) ? . . . .
C(3) C(4) C(5) C(6) 1.6(19) ? . . . .
S(6) C(5) C(6) S(7) -0.2(10) ? . . . .
S(6) C(5) C(6) C(1) 179.4(9) ? . . . .
C(4) C(5) C(6) S(7) 179.2(9) ? . . . .
C(4) C(5) C(6) C(1) -1.2(19) ? . . . .
S(9) C(9) C(10) S(10) 2.8(12) ? . . . .
S(9) C(9) C(10) C(11) 178.4(8) ? . . . .
S(9) C(9) C(14) S(15) 0.3(9) ? . . . .
S(9) C(9) C(14) C(13) -176.2(8) ? . . . .
C(10) C(9) C(14) S(15) 178.5(8) ? . . . .
C(10) C(9) C(14) C(13) 2.0(16) ? . . . .
C(14) C(9) C(10) S(10) -175.4(8) ? . . . .
C(14) C(9) C(10) C(11) 0.2(11) ? . . . .
S(10) C(10) C(11) S(11) -7.4(13) ? . . . .
S(10) C(10) C(11) C(12) 175.9(8) ? . . . .
C(9) C(10) C(11) S(11) 177.2(8) ? . . . .
C(9) C(10) C(11) C(12) 0.4(13) ? . . . .
S(11) C(11) C(12) S(12) 4.2(12) ? . . . .
S(11) C(11) C(12) C(13) 180.0(8) ? . . . .
C(10) C(11) C(12) S(12) -178.9(8) ? . . . .
C(10) C(11) C(12) C(13) -3.0(17) ? . . . .
S(12) C(12) C(13) S(14) -1.1(15) ? . . . .
S(12) C(12) C(13) C(14) -179.5(8) ? . . . .
C(11) C(12) C(13) S(14) -176.6(8) ? . . . .
C(11) C(12) C(13) C(14) 5.0(16) ? . . . .
S(14) C(13) C(14) S(15) 0.1(9) ? . . . .
S(14) C(13) C(14) C(9) 176.8(8) ? . . . .
C(12) C(13) C(14) S(15) 178.7(8) ? . . . .
C(12) C(13) C(14) C(9) -4.7(16) ? . . . .
S(17) C(17) C(18) S(18) -3.5(14) ? . . . .
S(17) C(17) C(18) C(19) 177.4(8) ? . . . .
S(17) C(17) C(22) S(23) -2.5(14) ? . . . .
S(17) C(17) C(22) C(21) -177.9(8) ? . . . .
C(18) C(17) C(22) S(23) 179.0(9) ? . . . .
C(18) C(17) C(22) C(21) 3.6(17) ? . . . .
C(22) C(17) C(18) S(18) 175.0(8) ? . . . .
C(22) C(17) C(18) C(19) -4.1(16) ? . . . .
S(18) C(18) C(19) S(19) 2.8(14) ? . . . .
S(18) C(18) C(19) C(20) -175.4(9) ? . . . .
C(17) C(18) C(19) S(19) -178.1(8) ? . . . .
C(17) C(18) C(19) C(20) 3.7(17) ? . . . .
S(19) C(19) C(20) S(20) 0.6(10) ? . . . .
S(19) C(19) C(20) C(21) 179.2(8) ? . . . .
C(18) C(19) C(20) S(20) 179.0(9) ? . . . .
C(18) C(19) C(20) C(21) -2.5(17) ? . . . .
S(20) C(20) C(21) S(22) -0.0(15) ? . . . .
S(20) C(20) C(21) C(22) -179.8(7) ? . . . .
C(19) C(20) C(21) S(22) -178.4(8) ? . . . .
C(19) C(20) C(21) C(22) 1.8(16) ? . . . .
S(22) C(21) C(22) S(23) 2.0(12) ? . . . .
S(22) C(21) C(22) C(17) 177.8(8) ? . . . .
C(20) C(21) C(22) S(23) -178.2(8) ? . . . .
C(20) C(21) C(22) C(17) -2.4(17) ? . . . .
P(1) C(25) C(26) C(27) 179.2(11) ? . . . .
P(1) C(25) C(30) C(29) -176.5(11) ? . . . .
C(26) C(25) C(30) C(29) 3(2) ? . . . .
C(30) C(25) C(26) C(27) -0.3(15) ? . . . .
C(25) C(26) C(27) C(28) -1(2) ? . . . .
C(26) C(27) C(28) C(29) 0.4(17) ? . . . .
C(27) C(28) C(29) C(30) 2(2) ? . . . .
C(28) C(29) C(30) C(25) -4(2) ? . . . .
P(1) C(31) C(32) C(33) -179.1(9) ? . . . .
P(1) C(31) C(36) C(35) 177.5(9) ? . . . .
C(32) C(31) C(36) C(35) 0.5(15) ? . . . .
C(36) C(31) C(32) C(33) -2.3(18) ? . . . .
C(31) C(32) C(33) C(34) 1.6(18) ? . . . .
C(32) C(33) C(34) C(35) 0.8(19) ? . . . .
C(33) C(34) C(35) C(36) -3(2) ? . . . .
C(34) C(35) C(36) C(31) 1.8(18) ? . . . .
P(1) C(37) C(38) C(39) -178.2(10) ? . . . .
P(1) C(37) C(42) C(41) 178.5(10) ? . . . .
C(38) C(37) C(42) C(41) 1.1(19) ? . . . .
C(42) C(37) C(38) C(39) -1.0(18) ? . . . .
C(37) C(38) C(39) C(40) 2(2) ? . . . .
C(38) C(39) C(40) C(41) -3(2) ? . . . .
C(39) C(40) C(41) C(42) 3(2) ? . . . .
C(40) C(41) C(42) C(37) -2(2) ? . . . .
P(1) C(43) C(44) C(45) -179.1(11) ? . . . .
P(1) C(43) C(48) C(47) -178.2(11) ? . . . .
C(44) C(43) C(48) C(47) 0.8(17) ? . . . .
C(48) C(43) C(44) C(45) 2(2) ? . . . .
C(43) C(44) C(45) C(46) -3(2) ? . . . .
C(44) C(45) C(46) C(47) 1(2) ? . . . .
C(45) C(46) C(47) C(48) 2(2) ? . . . .
C(46) C(47) C(48) C(43) -3(2) ? . . . .
P(2) C(49) C(50) C(51) -180.0(10) ? . . . .
P(2) C(49) C(54) C(53) -179.2(10) ? . . . .
C(50) C(49) C(54) C(53) -3(2) ? . . . .
C(54) C(49) C(50) C(51) 4(2) ? . . . .
C(49) C(50) C(51) C(52) -2(2) ? . . . .
C(50) C(51) C(52) C(53) 1(2) ? . . . .
C(51) C(52) C(53) C(54) 0(2) ? . . . .
C(52) C(53) C(54) C(49) 1(2) ? . . . .
P(2) C(55) C(56) C(57) -174.5(11) ? . . . .
P(2) C(55) C(60) C(59) 174.0(11) ? . . . .
C(56) C(55) C(60) C(59) 3(2) ? . . . .
C(60) C(55) C(56) C(57) -3(2) ? . . . .
C(55) C(56) C(57) C(58) 0.6(18) ? . . . .
C(56) C(57) C(58) C(59) 2(2) ? . . . .
C(57) C(58) C(59) C(60) -2(2) ? . . . .
C(58) C(59) C(60) C(55) -0.3(17) ? . . . .
P(2) C(61) C(62) C(63) 170.9(11) ? . . . .
P(2) C(61) C(66) C(65) -171.2(10) ? . . . .
C(62) C(61) C(66) C(65) 1(2) ? . . . .
C(66) C(61) C(62) C(63) -2(2) ? . . . .
C(61) C(62) C(63) C(64) 3(2) ? . . . .
C(62) C(63) C(64) C(65) -3(2) ? . . . .
C(63) C(64) C(65) C(66) 2(2) ? . . . .
C(64) C(65) C(66) C(61) -1(2) ? . . . .
P(2) C(67) C(68) C(69) -173.0(8) ? . . . .
P(2) C(67) C(72) C(71) 172.8(9) ? . . . .
C(68) C(67) C(72) C(71) 1.5(16) ? . . . .
C(72) C(67) C(68) C(69) -1.9(16) ? . . . .
C(67) C(68) C(69) C(70) 1.4(16) ? . . . .
C(68) C(69) C(70) C(71) -0.4(13) ? . . . .
C(69) C(70) C(71) C(72) 0.0(18) ? . . . .
C(70) C(71) C(72) C(67) -0.6(14) ? . . . .
C(L1) C(73) C(74) C(L2) 4(2) ? . . . .
C(L1) C(73) C(74) C(75) 179.4(12) ? . . . .
C(L1) C(73) C(78) C(77) -177.2(14) ? . . . .
C(74) C(73) C(78) C(77) 3(2) ? . . . .
C(78) C(73) C(74) C(L2) -175.5(15) ? . . . .
C(78) C(73) C(74) C(75) -0(2) ? . . . .
C(L2) C(74) C(75) C(76) 174.3(13) ? . . . .
C(73) C(74) C(75) C(76) -1(2) ? . . . .
C(74) C(75) C(76) C(77) 0(2) ? . . . .
C(75) C(76) C(77) C(78) 2(2) ? . . . .
C(76) C(77) C(78) C(73) -3(2) ? . . . .
C(79) C(80) C(81) C(82) 141.1 ? . . . .
C(79) C(80) C(81) C(82) -177.9 ? . . . 75602
C(80) C(81) C(82) C(81) 40.4 ? . . . 75602
C(80) C(81) C(82) C(81) -173.1 ? . . 75602 75602

loop_
_geom_contact_atom_site_label_1
_geom_contact_atom_site_label_2
_geom_contact_distance
_geom_contact_publ_flag
_geom_contact_site_symmetry_1
_geom_contact_site_symmetry_2
C(L1) C(L2) 3.579(7) ? . 85602
C(L1) S(5) 3.552(5) ? . 86602
C(L1) C(65) 3.560(19) ? . .
C(L1) C(79) 3.467 ? . 65501
C(L2) C(L1) 3.579(7) ? . 85602
C(L2) C(L2) 3.597(6) ? . 85602
C(L2) S(5) 3.374(4) ? . 54501
S(1) S(20) 3.474(4) ? . 75502
S(2) S(12) 3.592(4) ? . 76602
S(5) C(L1) 3.552(5) ? . 86602
S(5) C(L2) 3.374(4) ? . 56501
S(5) C(35) 3.597(13) ? . .
S(7) C(46) 3.516(16) ? . 45501
S(8) C(53) 3.395(19) ? . 76502
S(9) C(57) 3.549(10) ? . 45501
S(11) C(16) 3.554(13) ? . 76602
S(12) S(2) 3.592(4) ? . 76602
S(12) C(2) 3.510(11) ? . 76602
S(12) C(3) 3.495(12) ? . 76602
S(13) C(30) 3.535(16) ? . 86602
S(13) C(44) 3.496(14) ? . 86602
S(13) C(79) 3.240 ? . .
S(14) C(10) 3.508(10) ? . 76602
S(14) C(11) 3.574(12) ? . 76602
S(14) C(64) 3.322(15) ? . 45501
S(15) C(15) 3.555(14) ? . 76602
S(16) C(41) 3.496(17) ? . 45501
S(16) C(62) 3.516(17) ? . 76602
S(19) C(22) 3.462(11) ? . 75502
S(20) S(1) 3.474(4) ? . 75502
S(20) C(17) 3.515(12) ? . 75502
S(20) C(18) 3.591(12) ? . 75502
S(21) C(34) 3.562(19) ? . 54501
S(23) C(32) 3.560(13) ? . 44501
S(24) C(32) 3.588(11) ? . 44501
S(24) C(54) 3.508(13) ? . 75502
C(2) S(12) 3.510(11) ? . 76602
C(3) S(12) 3.495(12) ? . 76602
C(10) S(14) 3.508(10) ? . 76602
C(11) S(14) 3.574(12) ? . 76602
C(11) C(13) 3.526(15) ? . 76602
C(12) C(13) 3.588(17) ? . 76602
C(12) C(14) 3.571(15) ? . 76602
C(13) C(11) 3.526(15) ? . 76602
C(13) C(12) 3.588(17) ? . 76602
C(13) C(65) 3.475(17) ? . 45501
C(14) C(12) 3.571(15) ? . 76602
C(14) C(65) 3.583(18) ? . 45501
C(15) S(15) 3.555(14) ? . 76602
C(15) C(79) 3.345 ? . .
C(16) S(11) 3.554(13) ? . 76602
C(16) C(64) 3.46(2) ? . 45501
C(17) S(20) 3.515(12) ? . 75502
C(18) S(20) 3.591(12) ? . 75502
C(18) C(20) 3.440(15) ? . 75502
C(19) C(20) 3.500(17) ? . 75502
C(19) C(21) 3.533(16) ? . 75502
C(19) C(28) 3.448(19) ? . 44501
C(20) C(18) 3.440(15) ? . 75502
C(20) C(19) 3.500(17) ? . 75502
C(20) C(28) 3.386(17) ? . 44501
C(20) C(29) 3.41(2) ? . 44501
C(21) C(19) 3.533(16) ? . 75502
C(21) C(28) 3.437(16) ? . 44501
C(21) C(29) 3.36(2) ? . 44501
C(22) S(19) 3.462(11) ? . 75502
C(26) C(77) 3.59(2) ? . 56501
C(27) C(77) 3.58(2) ? . 56501
C(27) C(82) 3.569(14) ? . 66501
C(28) C(19) 3.448(19) ? . 66501
C(28) C(20) 3.386(17) ? . 66501
C(28) C(21) 3.437(16) ? . 66501
C(29) C(20) 3.41(2) ? . 66501
C(29) C(21) 3.36(2) ? . 66501
C(30) S(13) 3.535(16) ? . 86602
C(32) S(23) 3.560(13) ? . 66501
C(32) S(24) 3.588(11) ? . 66501
C(32) C(75) 3.468(17) ? . 56501
C(32) C(76) 3.597(16) ? . 56501
C(34) S(21) 3.562(19) ? . 56501
C(35) S(5) 3.597(13) ? . .
C(39) C(64) 3.55(2) ? . 86602
C(41) S(16) 3.496(17) ? . 65501
C(42) C(82) 3.599(11) ? . 66501
C(44) S(13) 3.496(14) ? . 86602
C(44) C(51) 3.46(2) ? . .
C(46) S(7) 3.516(16) ? . 65501
C(51) C(44) 3.46(2) ? . .
C(51) C(63) 3.52(2) ? . 86602
C(53) S(8) 3.395(19) ? . 76502
C(54) S(24) 3.508(12) ? . 75502
C(57) S(9) 3.549(10) ? . 65501
C(62) S(16) 3.516(17) ? . 76602
C(63) C(51) 3.52(2) ? . 86602
C(64) S(14) 3.322(15) ? . 65501
C(64) C(16) 3.46(2) ? . 65501
C(64) C(39) 3.55(2) ? . 86602
C(65) C(L1) 3.560(19) ? . .
C(65) C(13) 3.475(17) ? . 65501
C(65) C(14) 3.583(18) ? . 65501
C(65) C(73) 3.34(2) ? . .
C(65) C(78) 3.59(2) ? . .
C(66) C(73) 3.47(2) ? . .
C(66) C(74) 3.49(2) ? . .
C(73) C(65) 3.34(2) ? . .
C(73) C(66) 3.47(2) ? . .
C(74) C(66) 3.49(2) ? . .
C(75) C(32) 3.468(17) ? . 54501
C(76) C(32) 3.597(16) ? . 54501
C(77) C(26) 3.59(2) ? . 54501
C(77) C(27) 3.58(2) ? . 54501
C(78) C(65) 3.59(2) ? . .
C(79) C(L1) 3.467 ? . 45501
C(79) S(13) 3.240 ? . .
C(79) C(15) 3.345 ? . .
C(82) C(27) 3.569(14) ? . 44501
C(82) C(42) 3.599(11) ? . 44501
V(1) H(43) 3.586 ? . 45501
C(L1) H(12) 3.471 ? . 86602
C(L1) H(34) 2.956 ? . .
C(L1) H(45) 3.041 ? . 65501
C(L1) H(47) 3.101 ? . 65501
C(L1) H(48) 3.458 ? . 65501
C(L1) H(50) 3.464 ? . 65501
C(L2) H(12) 3.223 ? . 54501
C(L2) H(12) 3.354 ? . 86602
C(L2) H(13) 3.583 ? . 86602
C(L2) H(39) 3.534 ? . .
C(L2) H(40) 3.317 ? . .
S(1) H(27) 3.170 ? . 45501
S(2) H(24) 2.869 ? . .
S(3) H(23) 3.036 ? . .
S(3) H(33) 3.270 ? . 86602
S(4) H(4) 3.527 ? . 45501
S(5) H(11) 2.961 ? . .
S(5) H(12) 3.573 ? . .
S(5) H(39) 2.941 ? . 56501
S(5) H(47) 3.593 ? . 76602
S(6) H(4) 3.133 ? . 45501
S(6) H(5) 3.305 ? . 45501
S(7) H(8) 3.600 ? . 76502
S(7) H(9) 2.898 ? . 76502
S(7) H(18) 3.403 ? . 45501
S(8) H(9) 2.902 ? . 76502
S(8) H(10) 3.593 ? . 76502
S(8) H(19) 3.268 ? . 45501
S(8) H(23) 3.301 ? . 76502
S(8) H(24) 2.814 ? . 76502
S(9) H(17) 3.584 ? . 45501
S(9) H(26) 3.288 ? . 45501
S(9) H(27) 2.824 ? . 45501
S(9) H(43) 3.312 ? . 45501
S(10) H(2) 3.517 ? . 44501
S(10) H(37) 3.176 ? . .
S(10) H(43) 3.051 ? . 45501
S(11) H(44) 3.464 ? . 45501
S(11) H(45) 3.213 ? . .
S(11) H(50) 3.014 ? . .
S(11) H(53) 3.334 ? . 75602
S(12) H(45) 3.486 ? . .
S(13) H(5) 3.302 ? . 86602
S(13) H(15) 3.060 ? . 86602
S(13) H(16) 3.020 ? . 86602
S(13) H(45) 3.137 ? . .
S(13) H(46) 2.580 ? . .
S(13) H(49) 3.115 ? . .
S(13) H(50) 3.374 ? . .
S(13) H(53) 3.574 ? . 75602
S(14) H(33) 3.240 ? . 45501
S(15) H(17) 3.148 ? . 45501
S(15) H(21) 3.357 ? . 45501
S(15) H(26) 3.203 ? . 45501
S(16) H(14) 3.184 ? . 45501
S(16) H(21) 3.360 ? . 45501
S(16) H(31) 2.776 ? . 76602
S(16) H(32) 3.568 ? . 45501
S(16) H(32) 3.554 ? . 76602
S(16) H(36) 3.131 ? . 76602
S(17) H(27) 3.176 ? . 45501
S(17) H(42) 3.350 ? . 45501
S(17) H(43) 2.969 ? . 45501
S(18) H(25) 3.301 ? . .
S(19) H(3) 3.586 ? . 44501
S(19) H(25) 3.549 ? . .
S(19) H(30) 3.234 ? . .
S(20) H(4) 3.223 ? . 44501
S(21) H(8) 2.822 ? . 54501
S(21) H(28) 3.283 ? . 85502
S(21) H(29) 3.450 ? . .
S(21) H(30) 2.981 ? . .
S(22) H(24) 3.544 ? . 75502
S(22) H(25) 3.544 ? . 75502
S(23) H(6) 3.005 ? . 44501
S(23) H(7) 3.495 ? . 44501
S(23) H(29) 3.359 ? . 75502
S(24) H(18) 3.419 ? . 75502
S(24) H(20) 3.266 ? . 44501
S(24) H(25) 3.483 ? . 75502
C(7) H(9) 3.253 ? . .
C(8) H(9) 3.263 ? . 76502
C(9) H(43) 3.254 ? . 45501
C(10) H(43) 3.109 ? . 45501
C(10) H(44) 3.141 ? . 45501
C(11) H(44) 3.098 ? . 45501
C(12) H(34) 3.420 ? . 45501
C(13) H(34) 3.132 ? . 45501
C(14) H(34) 3.380 ? . 45501
C(15) H(45) 2.791 ? . .
C(15) H(46) 3.108 ? . .
C(15) H(49) 3.591 ? . .
C(15) H(50) 3.099 ? . .
C(17) H(3) 3.561 ? . 44501
C(18) H(3) 3.194 ? . 44501
C(19) H(3) 2.907 ? . 44501
C(20) H(3) 3.135 ? . 44501
C(20) H(4) 3.200 ? . 44501
C(21) H(3) 3.529 ? . 44501
C(21) H(4) 3.417 ? . 44501
C(23) H(30) 3.506 ? . .
C(24) H(6) 3.441 ? . 44501
C(24) H(25) 3.494 ? . 75502
C(25) H(54) 3.501 ? . 66501
C(26) H(54) 2.841 ? . 66501
C(27) H(43) 3.453 ? . 56501
C(27) H(49) 3.572 ? . 86602
C(27) H(54) 2.621 ? . 66501
C(28) H(38) 3.145 ? . 66501
C(28) H(46) 3.472 ? . 86602
C(28) H(49) 3.248 ? . 86602
C(28) H(54) 3.094 ? . 66501
C(29) H(46) 3.163 ? . 86602
C(29) H(49) 3.393 ? . 86602
C(32) H(41) 3.175 ? . 56501
C(32) H(42) 3.389 ? . 56501
C(33) H(28) 3.505 ? . 86502
C(33) H(41) 3.020 ? . 56501
C(33) H(42) 3.468 ? . 56501
C(34) H(18) 3.322 ? . 86502
C(34) H(28) 3.536 ? . 86502
C(35) H(18) 3.492 ? . 86502
C(35) H(19) 2.999 ? . 86502
C(36) H(19) 3.132 ? . 86502
C(36) H(23) 3.339 ? . .
C(37) H(22) 3.165 ? . .
C(38) H(22) 3.226 ? . .
C(39) H(33) 3.565 ? . 86602
C(41) H(51) 3.275 ? . 66501
C(41) H(53) 3.162 ? . 66501
C(42) H(22) 3.594 ? . .
C(42) H(51) 3.481 ? . 66501
C(42) H(53) 3.018 ? . 66501
C(42) H(54) 3.480 ? . 66501
C(43) H(22) 3.388 ? . .
C(44) H(22) 2.956 ? . .
C(45) H(21) 3.479 ? . .
C(45) H(22) 3.595 ? . .
C(45) H(26) 3.386 ? . .
C(47) H(9) 3.599 ? . 86502
C(47) H(20) 3.514 ? . 86502
C(48) H(19) 3.391 ? . 86502
C(50) H(17) 3.513 ? . .
C(50) H(32) 2.968 ? . 86602
C(51) H(10) 3.553 ? . .
C(51) H(16) 3.506 ? . .
C(51) H(32) 2.720 ? . 86602
C(51) H(33) 3.587 ? . 86602
C(52) H(10) 3.136 ? . .
C(52) H(32) 3.369 ? . 86602
C(52) H(33) 3.418 ? . 86602
C(56) H(17) 3.120 ? . .
C(56) H(18) 3.540 ? . .
C(56) H(42) 3.451 ? . .
C(57) H(17) 3.446 ? . .
C(57) H(18) 3.210 ? . .
C(57) H(42) 3.125 ? . .
C(58) H(7) 3.277 ? . 86502
C(58) H(8) 3.531 ? . 86502
C(58) H(29) 3.116 ? . 85502
C(58) H(42) 3.106 ? . .
C(59) H(7) 3.457 ? . 54501
C(59) H(7) 3.390 ? . 86502
C(59) H(28) 3.389 ? . 85502
C(59) H(29) 3.205 ? . 85502
C(59) H(42) 3.446 ? . .
C(61) H(13) 3.493 ? . 86602
C(62) H(13) 3.403 ? . 86602
C(63) H(22) 3.346 ? . 86602
C(64) H(12) 3.201 ? . 86602
C(65) H(12) 3.360 ? . 86602
C(67) H(13) 3.158 ? . 86602
C(68) H(13) 3.265 ? . 86602
C(68) H(14) 3.410 ? . 86602
C(69) H(3) 3.397 ? . 44501
C(69) H(13) 3.330 ? . 86602
C(69) H(14) 2.872 ? . 86602
C(70) H(3) 3.010 ? . 44501
C(70) H(13) 3.234 ? . 86602
C(70) H(14) 3.229 ? . 86602
C(70) H(47) 2.972 ? . 75602
C(70) H(48) 2.883 ? . 75602
C(70) H(52) 3.312 ? . 75602
C(71) H(13) 3.102 ? . 86602
C(71) H(47) 3.137 ? . 75602
C(71) H(48) 3.417 ? . 75602
C(72) H(13) 3.059 ? . 86602
C(72) H(41) 3.438 ? . .
C(73) H(1) 3.423 ? . 54501
C(73) H(34) 2.831 ? . .
C(73) H(35) 3.003 ? . .
C(74) H(1) 3.535 ? . 54501
C(74) H(34) 3.584 ? . .
C(74) H(35) 2.935 ? . .
C(74) H(40) 3.532 ? . .
C(75) H(1) 3.371 ? . 54501
C(75) H(6) 3.232 ? . 54501
C(75) H(7) 3.599 ? . 54501
C(75) H(35) 2.892 ? . .
C(75) H(40) 3.093 ? . .
C(76) H(1) 3.097 ? . 54501
C(76) H(6) 3.025 ? . 54501
C(76) H(35) 2.909 ? . .
C(77) H(1) 2.994 ? . 54501
C(77) H(2) 3.012 ? . 54501
C(77) H(35) 2.965 ? . .
C(78) H(1) 3.152 ? . 54501
C(78) H(2) 3.286 ? . 54501
C(78) H(34) 2.941 ? . .
C(78) H(35) 3.067 ? . .
C(79) H(38) 2.868 ? . 75602
C(79) H(39) 3.554 ? . 75602
C(80) H(38) 2.800 ? . 75602
C(81) H(14) 3.566 ? . 44501
C(81) H(38) 3.243 ? . 75602
C(82) H(14) 3.498 ? . 44501
C(82) H(15) 3.140 ? . 44501
H(1) C(73) 3.423 ? . 56501
H(1) C(74) 3.535 ? . 56501
H(1) C(75) 3.371 ? . 56501
H(1) C(76) 3.097 ? . 56501
H(1) C(77) 2.994 ? . 56501
H(1) C(78) 3.152 ? . 56501
H(1) H(42) 3.482 ? . 56501
H(1) H(43) 3.396 ? . 56501
H(1) H(44) 3.539 ? . 56501
H(1) H(51) 3.590 ? . 66501
H(1) H(54) 3.082 ? . 66501
H(2) S(10) 3.517 ? . 66501
H(2) C(77) 3.012 ? . 56501
H(2) C(78) 3.286 ? . 56501
H(2) H(43) 2.755 ? . 56501
H(2) H(44) 3.179 ? . 56501
H(2) H(54) 2.766 ? . 66501
H(3) S(19) 3.586 ? . 66501
H(3) C(17) 3.561 ? . 66501
H(3) C(18) 3.194 ? . 66501
H(3) C(19) 2.907 ? . 66501
H(3) C(20) 3.135 ? . 66501
H(3) C(21) 3.529 ? . 66501
H(3) C(69) 3.397 ? . 66501
H(3) C(70) 3.010 ? . 66501
H(3) H(37) 3.219 ? . 66501
H(3) H(38) 2.476 ? . 66501
H(3) H(46) 3.564 ? . 86602
H(3) H(49) 3.418 ? . 86602
H(3) H(54) 3.470 ? . 66501
H(4) S(4) 3.527 ? . 65501
H(4) S(6) 3.133 ? . 65501
H(4) S(20) 3.223 ? . 66501
H(4) C(20) 3.200 ? . 66501
H(4) C(21) 3.417 ? . 66501
H(4) H(46) 3.042 ? . 86602
H(5) S(6) 3.305 ? . 65501
H(5) S(13) 3.302 ? . 86602
H(6) S(23) 3.005 ? . 66501
H(6) C(24) 3.441 ? . 66501
H(6) C(75) 3.232 ? . 56501
H(6) C(76) 3.025 ? . 56501
H(6) H(41) 3.192 ? . 56501
H(6) H(42) 2.807 ? . 56501
H(7) S(23) 3.495 ? . 66501
H(7) C(58) 3.277 ? . 86502
H(7) C(59) 3.457 ? . 56501
H(7) C(59) 3.390 ? . 86502
H(7) C(75) 3.599 ? . 56501
H(7) H(28) 2.852 ? . 86502
H(7) H(29) 3.086 ? . 56501
H(7) H(29) 3.097 ? . 86502
H(7) H(41) 2.997 ? . 56501
H(7) H(42) 3.071 ? . 56501
H(8) S(7) 3.600 ? . 76502
H(8) S(21) 2.822 ? . 56501
H(8) C(58) 3.531 ? . 86502
H(8) H(18) 3.184 ? . 86502
H(8) H(28) 2.977 ? . 86502
H(9) S(7) 2.898 ? . 76502
H(9) S(8) 2.902 ? . 76502
H(9) C(7) 3.253 ? . .
H(9) C(8) 3.263 ? . 76502
H(9) C(47) 3.599 ? . 86502
H(9) H(18) 3.527 ? . 86502
H(9) H(19) 2.942 ? . 86502
H(10) S(8) 3.593 ? . 76502
H(10) C(51) 3.553 ? . .
H(10) C(52) 3.136 ? . .
H(10) H(19) 3.186 ? . 86502
H(10) H(22) 3.315 ? . .
H(10) H(23) 2.515 ? . .
H(11) S(5) 2.961 ? . .
H(11) H(22) 3.460 ? . .
H(11) H(23) 3.500 ? . .
H(12) C(L1) 3.471 ? . 86602
H(12) C(L2) 3.223 ? . 56501
H(12) C(L2) 3.354 ? . 86602
H(12) S(5) 3.573 ? . .
H(12) C(64) 3.201 ? . 86602
H(12) C(65) 3.360 ? . 86602
H(12) H(33) 3.205 ? . 86602
H(13) C(L2) 3.583 ? . 86602
H(13) C(61) 3.493 ? . 86602
H(13) C(62) 3.403 ? . 86602
H(13) C(67) 3.158 ? . 86602
H(13) C(68) 3.265 ? . 86602
H(13) C(69) 3.330 ? . 86602
H(13) C(70) 3.234 ? . 86602
H(13) C(71) 3.102 ? . 86602
H(13) C(72) 3.059 ? . 86602
H(13) H(39) 3.554 ? . 86602
H(13) H(40) 3.514 ? . 86602
H(14) S(16) 3.184 ? . 65501
H(14) C(68) 3.410 ? . 86602
H(14) C(69) 2.872 ? . 86602
H(14) C(70) 3.229 ? . 86602
H(14) C(81) 3.566 ? . 66501
H(14) C(82) 3.498 ? . 66501
H(14) H(37) 2.859 ? . 86602
H(14) H(38) 3.436 ? . 86602
H(14) H(51) 3.172 ? . 66501
H(14) H(52) 3.126 ? . 66501
H(14) H(53) 2.811 ? . 66501
H(15) S(13) 3.060 ? . 86602
H(15) C(82) 3.140 ? . 66501
H(15) H(49) 3.548 ? . 86602
H(15) H(51) 3.442 ? . 66501
H(15) H(53) 2.479 ? . 66501
H(15) H(54) 3.019 ? . 66501
H(16) S(13) 3.020 ? . 86602
H(16) C(51) 3.506 ? . .
H(16) H(21) 3.442 ? . .
H(16) H(22) 2.819 ? . .
H(17) S(9) 3.584 ? . 65501
H(17) S(15) 3.148 ? . 65501
H(17) C(50) 3.513 ? . .
H(17) C(56) 3.120 ? . .
H(17) C(57) 3.446 ? . .
H(17) H(21) 3.160 ? . .
H(17) H(26) 2.582 ? . .
H(17) H(27) 3.232 ? . .
H(18) S(7) 3.403 ? . 65501
H(18) S(24) 3.419 ? . 75502
H(18) C(34) 3.322 ? . 86502
H(18) C(35) 3.492 ? . 86502
H(18) C(56) 3.540 ? . .
H(18) C(57) 3.210 ? . .
H(18) H(8) 3.184 ? . 86502
H(18) H(9) 3.527 ? . 86502
H(18) H(27) 3.134 ? . .
H(19) S(8) 3.268 ? . 65501
H(19) C(35) 2.999 ? . 86502
H(19) C(36) 3.132 ? . 86502
H(19) C(48) 3.391 ? . 86502
H(19) H(9) 2.942 ? . 86502
H(19) H(10) 3.186 ? . 86502
H(19) H(19) 3.356 ? . 86502
H(19) H(20) 2.824 ? . 86502
H(20) S(24) 3.266 ? . 66501
H(20) C(47) 3.514 ? . 86502
H(20) H(19) 2.824 ? . 86502
H(21) S(15) 3.357 ? . 65501
H(21) S(16) 3.360 ? . 65501
H(21) C(45) 3.479 ? . .
H(21) H(16) 3.442 ? . .
H(21) H(17) 3.160 ? . .
H(21) H(32) 3.093 ? . 86602
H(22) C(37) 3.165 ? . .
H(22) C(38) 3.226 ? . .
H(22) C(42) 3.594 ? . .
H(22) C(43) 3.388 ? . .
H(22) C(44) 2.956 ? . .
H(22) C(45) 3.595 ? . .
H(22) C(63) 3.346 ? . 86602
H(22) H(10) 3.315 ? . .
H(22) H(11) 3.460 ? . .
H(22) H(16) 2.819 ? . .
H(22) H(32) 2.672 ? . 86602
H(22) H(33) 3.568 ? . 86602
H(23) S(3) 3.036 ? . .
H(23) S(8) 3.301 ? . 76502
H(23) C(36) 3.339 ? . .
H(23) H(10) 2.515 ? . .
H(23) H(11) 3.500 ? . .
H(23) H(33) 3.192 ? . 86602
H(24) S(2) 2.869 ? . .
H(24) S(8) 2.814 ? . 76502
H(24) S(22) 3.544 ? . 75502
H(25) S(18) 3.301 ? . .
H(25) S(19) 3.549 ? . .
H(25) S(22) 3.544 ? . 75502
H(25) S(24) 3.483 ? . 75502
H(25) C(24) 3.494 ? . 75502
H(26) S(9) 3.288 ? . 65501
H(26) S(15) 3.203 ? . 65501
H(26) C(45) 3.386 ? . .
H(26) H(17) 2.582 ? . .
H(27) S(1) 3.170 ? . 65501
H(27) S(9) 2.824 ? . 65501
H(27) S(17) 3.176 ? . 65501
H(27) H(17) 3.232 ? . .
H(27) H(18) 3.134 ? . .
H(27) H(42) 3.427 ? . .
H(28) S(21) 3.283 ? . 85502
H(28) C(33) 3.505 ? . 86502
H(28) C(34) 3.536 ? . 86502
H(28) C(59) 3.389 ? . 85502
H(28) H(7) 2.852 ? . 86502
H(28) H(8) 2.977 ? . 86502
H(28) H(29) 2.467 ? . 85502
H(28) H(42) 3.454 ? . .
H(29) S(21) 3.450 ? . .
H(29) S(23) 3.359 ? . 75502
H(29) C(58) 3.116 ? . 85502
H(29) C(59) 3.205 ? . 85502
H(29) H(7) 3.086 ? . 54501
H(29) H(7) 3.097 ? . 86502
H(29) H(28) 2.467 ? . 85502
H(29) H(29) 2.614 ? . 85502
H(30) S(19) 3.234 ? . .
H(30) S(21) 2.981 ? . .
H(30) C(23) 3.506 ? . .
H(31) S(16) 2.776 ? . 76602
H(31) H(32) 2.966 ? . 86602
H(32) S(16) 3.568 ? . 65501
H(32) S(16) 3.554 ? . 76602
H(32) C(50) 2.968 ? . 86602
H(32) C(51) 2.720 ? . 86602
H(32) C(52) 3.369 ? . 86602
H(32) H(21) 3.093 ? . 86602
H(32) H(22) 2.672 ? . 86602
H(32) H(31) 2.966 ? . 86602
H(33) S(3) 3.270 ? . 86602
H(33) S(14) 3.240 ? . 65501
H(33) C(39) 3.565 ? . 86602
H(33) C(51) 3.587 ? . 86602
H(33) C(52) 3.418 ? . 86602
H(33) H(12) 3.205 ? . 86602
H(33) H(22) 3.568 ? . 86602
H(33) H(23) 3.192 ? . 86602
H(34) C(L1) 2.956 ? . .
H(34) C(12) 3.420 ? . 65501
H(34) C(13) 3.132 ? . 65501
H(34) C(14) 3.380 ? . 65501
H(34) C(73) 2.831 ? . .
H(34) C(74) 3.584 ? . .
H(34) C(78) 2.941 ? . .
H(34) H(44) 3.039 ? . .
H(35) C(73) 3.003 ? . .
H(35) C(74) 2.935 ? . .
H(35) C(75) 2.892 ? . .
H(35) C(76) 2.909 ? . .
H(35) C(77) 2.965 ? . .
H(35) C(78) 3.067 ? . .
H(35) H(41) 3.425 ? . .
H(35) H(42) 3.437 ? . .
H(35) H(43) 3.486 ? . .
H(36) S(16) 3.131 ? . 76602
H(37) S(10) 3.176 ? . .
H(37) H(3) 3.219 ? . 44501
H(37) H(14) 2.859 ? . 86602
H(37) H(52) 3.369 ? . 75602
H(38) C(28) 3.145 ? . 44501
H(38) C(79) 2.868 ? . 75602
H(38) C(80) 2.800 ? . 75602
H(38) C(81) 3.243 ? . 75602
H(38) H(3) 2.476 ? . 44501
H(38) H(14) 3.436 ? . 86602
H(38) H(46) 3.073 ? . 75602
H(38) H(47) 2.317 ? . 75602
H(38) H(48) 2.088 ? . 75602
H(38) H(49) 2.956 ? . 75602
H(38) H(51) 3.324 ? . 75602
H(38) H(52) 2.606 ? . 75602
H(39) C(L2) 3.534 ? . .
H(39) S(5) 2.941 ? . 54501
H(39) C(79) 3.554 ? . 75602
H(39) H(13) 3.554 ? . 86602
H(39) H(47) 2.623 ? . 75602
H(39) H(48) 3.139 ? . 75602
H(40) C(L2) 3.317 ? . .
H(40) C(74) 3.532 ? . .
H(40) C(75) 3.093 ? . .
H(40) H(13) 3.514 ? . 86602
H(40) H(41) 2.551 ? . .
H(41) C(32) 3.175 ? . 54501
H(41) C(33) 3.020 ? . 54501
H(41) C(72) 3.438 ? . .
H(41) H(6) 3.192 ? . 54501
H(41) H(7) 2.997 ? . 54501
H(41) H(35) 3.425 ? . .
H(41) H(40) 2.551 ? . .
H(42) S(17) 3.350 ? . 65501
H(42) C(32) 3.389 ? . 54501
H(42) C(33) 3.468 ? . 54501
H(42) C(56) 3.451 ? . .
H(42) C(57) 3.125 ? . .
H(42) C(58) 3.106 ? . .
H(42) C(59) 3.446 ? . .
H(42) H(1) 3.482 ? . 54501
H(42) H(6) 2.807 ? . 54501
H(42) H(7) 3.071 ? . 54501
H(42) H(27) 3.427 ? . .
H(42) H(28) 3.454 ? . .
H(42) H(35) 3.437 ? . .
H(43) V(1) 3.586 ? . 65501
H(43) S(9) 3.312 ? . 65501
H(43) S(10) 3.051 ? . 65501
H(43) S(17) 2.969 ? . 65501
H(43) C(9) 3.254 ? . 65501
H(43) C(10) 3.109 ? . 65501
H(43) C(27) 3.453 ? . 54501
H(43) H(1) 3.396 ? . 54501
H(43) H(2) 2.755 ? . 54501
H(43) H(35) 3.486 ? . .
H(44) S(11) 3.464 ? . 65501
H(44) C(10) 3.141 ? . 65501
H(44) C(11) 3.098 ? . 65501
H(44) H(1) 3.539 ? . 54501
H(44) H(2) 3.179 ? . 54501
H(44) H(34) 3.039 ? . .
H(44) H(45) 3.132 ? . 65501
H(44) H(50) 3.001 ? . 65501
H(44) H(51) 3.486 ? . 65501
H(45) C(L1) 3.041 ? . 45501
H(45) S(11) 3.213 ? . .
H(45) S(12) 3.486 ? . .
H(45) S(13) 3.137 ? . .
H(45) C(15) 2.791 ? . .
H(45) H(44) 3.132 ? . 45501
H(46) S(13) 2.580 ? . .
H(46) C(15) 3.108 ? . .
H(46) C(28) 3.472 ? . 86602
H(46) C(29) 3.163 ? . 86602
H(46) H(3) 3.564 ? . 86602
H(46) H(4) 3.042 ? . 86602
H(46) H(38) 3.073 ? . 75602
H(47) C(L1) 3.101 ? . 45501
H(47) S(5) 3.593 ? . 76602
H(47) C(70) 2.972 ? . 75602
H(47) C(71) 3.137 ? . 75602
H(47) H(38) 2.317 ? . 75602
H(47) H(39) 2.623 ? . 75602
H(48) C(L1) 3.458 ? . 45501
H(48) C(70) 2.883 ? . 75602
H(48) C(71) 3.417 ? . 75602
H(48) H(38) 2.088 ? . 75602
H(48) H(39) 3.139 ? . 75602
H(49) S(13) 3.115 ? . .
H(49) C(15) 3.591 ? . .
H(49) C(27) 3.572 ? . 86602
H(49) C(28) 3.248 ? . 86602
H(49) C(29) 3.393 ? . 86602
H(49) H(3) 3.418 ? . 86602
H(49) H(15) 3.548 ? . 86602
H(49) H(38) 2.956 ? . 75602
H(50) C(L1) 3.464 ? . 45501
H(50) S(11) 3.014 ? . .
H(50) S(13) 3.374 ? . .
H(50) C(15) 3.099 ? . .
H(50) H(44) 3.001 ? . 45501
H(51) C(41) 3.275 ? . 44501
H(51) C(42) 3.481 ? . 44501
H(51) H(1) 3.590 ? . 44501
H(51) H(14) 3.172 ? . 44501
H(51) H(15) 3.442 ? . 44501
H(51) H(38) 3.324 ? . 75602
H(51) H(44) 3.486 ? . 45501
H(52) C(70) 3.312 ? . 75602
H(52) H(14) 3.126 ? . 44501
H(52) H(37) 3.369 ? . 75602
H(52) H(38) 2.606 ? . 75602
H(53) S(11) 3.334 ? . 75602
H(53) S(13) 3.574 ? . 75602
H(53) C(41) 3.162 ? . 44501
H(53) C(42) 3.018 ? . 44501
H(53) H(14) 2.811 ? . 44501
H(53) H(15) 2.479 ? . 44501
H(54) C(25) 3.501 ? . 44501
H(54) C(26) 2.841 ? . 44501
H(54) C(27) 2.621 ? . 44501
H(54) C(28) 3.094 ? . 44501
H(54) C(42) 3.480 ? . 44501
H(54) H(1) 3.082 ? . 44501
H(54) H(2) 2.766 ? . 44501
H(54) H(3) 3.470 ? . 44501
H(54) H(15) 3.019 ? . 44501


#=======================================================================
#======

# Additional structures and associated data_? identifiers
# should be added at this point if there is more than one
# structure analysis in the CIF.

#=======================================================================
#======

# End of CIF

#=======================================================================
#======


