
###########################################################################
#
#                 Cambridge Crystallographic Data Centre
#                                CCDC 
# 
###########################################################################
#
#  This CIF contains data generated directly from one or more entries in
#  the Cambridge Structural Database and will include bibliographic, 
#  chemical, crystal, experimental, refinement, and atomic coordinate data,
#  as available.
#     
#  Copyright  2014  The Cambridge Crystallographic Data Centre
# 
#  This CIF is provided on the understanding that it is used for bona fide 
#  research purposes only.  It may contain copyright material of the CCDC
#  or of third parties, and may not be copied or further disseminated in 
#  any form, whether machine-readable or not, except for the purpose of 
#  generating routine backup copies on your local computer system.
# 
#  For further information about the CCDC, data deposition and data 
#  retrieval see <www.ccdc.cam.ac.uk>. Bona fide researchers may freely 
#  download  Mercury and enCIFer from this site to visualise CIF-encoded 
#  structures and to carry out CIF format checking respectively.
#
###########################################################################

data_CSD_CIF_ACACVO04
_audit_creation_date 2005-03-21
_audit_creation_method CSD-ConQuest-V1
_database_code_CSD ACACVO04
_database_code_depnum_ccdc_archive 'CCDC 230339'
_chemical_formula_sum 'C10 H14 O5 V1'
_chemical_formula_moiety
;
C10 H14 O5 V1
;
_journal_coden_Cambridge 29
_journal_volume 630
_journal_year 2004
_journal_page_first 2311
_journal_name_full 'Z.Anorg.Allg.Chem. '
loop_
_publ_author_name
"M.A.K.Ahmed"
"H.Fjellvag"
"A.Kjekshus"
"B.Klewe"
_chemical_name_systematic
;
bis(Acetylacetonato)-oxo-vanadium(iv)
;
_cell_volume    575.881
_exptl_crystal_colour 'green-blue'
_exptl_crystal_density_diffrn 1.529
_exptl_crystal_description 'Plate'
_exptl_crystal_preparation 'sublimation'
_diffrn_ambient_temperature 105
#These two values have been output from a single CSD field.
_refine_ls_R_factor_gt 0.0227
_refine_ls_wR_factor_gt 0.0227
_symmetry_cell_setting triclinic
_symmetry_space_group_name_H-M 'P -1'
_symmetry_Int_Tables_number 2
loop_
_symmetry_equiv_pos_site_id
_symmetry_equiv_pos_as_xyz
1 x,y,z
2 -x,-y,-z
_cell_length_a 7.3457(11)
_cell_length_b 8.1491(12)
_cell_length_c 11.2073(17)
_cell_angle_alpha 72.86(1)
_cell_angle_beta 72.20(1)
_cell_angle_gamma 66.94(1)
_cell_formula_units_Z 2
loop_
_atom_type_symbol
_atom_type_radius_bond
C 0.68
H 0.23
O 0.68
V 1.31
loop_
_atom_site_label
_atom_site_type_symbol
_atom_site_fract_x
_atom_site_fract_y
_atom_site_fract_z
V1 V 0.35888(3) 0.20793(3) 0.777579(19)
O1 O 0.15975(15) 0.31083(14) 0.71989(9)
O2 O 0.56400(14) 0.08223(12) 0.64334(9)
O3 O 0.50850(14) 0.38162(12) 0.73065(9)
O4 O 0.28067(14) 0.27034(12) 0.94726(9)
O5 O 0.35072(14) -0.03857(12) 0.86574(9)
C1 C 0.7730(2) 0.0411(2) 0.44008(14)
H1 H 0.86070 -0.08020 0.47310
H2 H 0.85380 0.10330 0.36830
H3 H 0.66660 0.02930 0.41080
C2 C 0.67770(19) 0.14947(18) 0.54418(12)
C3 C 0.7158(2) 0.30900(18) 0.53163(13)
H4 H 0.79890 0.34990 0.45420
C4 C 0.63775(19) 0.41256(17) 0.62735(12)
C5 C 0.7117(2) 0.56592(18) 0.61405(13)
H5 H 0.60410 0.65930 0.65820
H6 H 0.74870 0.61900 0.52320
H7 H 0.83050 0.51960 0.65200
C6 C 0.1357(2) 0.28497(19) 1.16393(13)
H8 H 0.23130 0.34530 1.15780
H9 H 0.12590 0.19880 1.24590
H10 H 0.00200 0.37640 1.15840
C7 C 0.20919(19) 0.18437(17) 1.05630(12)
C8 C 0.1995(2) 0.00998(18) 1.07790(12)
H11 H 0.14000 -0.04100 1.16140
C9 C 0.27317(18) -0.09395(17) 0.98265(12)
C10 C 0.2720(2) -0.28599(18) 1.01788(13)
H12 H 0.27530 -0.32340 0.94160
H13 H 0.14870 -0.29330 1.08220
H14 H 0.39120 -0.36680 1.05290
#END

data_CSD_CIF_ADUWEC
_audit_creation_date 2007-10-17
_audit_creation_method CSD-ConQuest-V1
_database_code_CSD ADUWEC
_database_code_depnum_ccdc_archive 'CCDC 639049'
_chemical_formula_sum 'C52 H96 Co4 O12'
_chemical_formula_moiety
;
C52 H96 Co4 O12
;
_journal_coden_Cambridge 29
_journal_volume 633
_journal_year 2007
_journal_page_first 1371
_journal_name_full 'Z.Anorg.Allg.Chem. '
loop_
_publ_author_name
"M.A.K.Ahmed"
"H.Fjellvag"
"A.Kjekshus"
"P.D.C.Dietzel"
_chemical_name_systematic
;
tetrakis(\m~3~-Ethoxo)-tetrakis(2,2,6,6-tetramethylheptane-3,5-dionato)-tetra-
cobalt(ii)
;
_cell_volume   5898.996
_exptl_crystal_colour 'pink'
_exptl_crystal_density_diffrn 1.294
_exptl_special_details
;
monoclinic polymorph
air- and moisture-sensitive

;
_exptl_crystal_description 'capped octahedron'
_diffrn_ambient_temperature 100
#These two values have been output from a single CSD field.
_refine_ls_R_factor_gt 0.0565
_refine_ls_wR_factor_gt 0.0565
_symmetry_cell_setting monoclinic
_symmetry_space_group_name_H-M 'C 2/c'
_symmetry_Int_Tables_number 15
loop_
_symmetry_equiv_pos_site_id
_symmetry_equiv_pos_as_xyz
1 x,y,z
2 1/2+x,1/2+y,z
3 -x,y,1/2-z
4 1/2-x,1/2+y,1/2-z
5 -x,-y,-z
6 -1/2-x,-1/2-y,-z
7 x,-y,-1/2+z
8 -1/2+x,-1/2-y,-1/2+z
_cell_length_a 15.1084(19)
_cell_length_b 19.428(2)
_cell_length_c 21.240(3)
_cell_angle_alpha 90
_cell_angle_beta 108.882(2)
_cell_angle_gamma 90
_cell_formula_units_Z 4
loop_
_atom_type_symbol
_atom_type_radius_bond
C 0.68
H 0.23
Co 1.31
O 0.68
loop_
_atom_site_label
_atom_site_type_symbol
_atom_site_fract_x
_atom_site_fract_y
_atom_site_fract_z
C1 C 0.7993(4) 0.0601(3) 0.4687(2)
H1 H 0.79610 0.05180 0.42350
H2 H 0.86310 0.06830 0.49530
H3 H 0.76210 0.09960 0.47050
C2 C 0.7623(4) -0.0024(3) 0.4953(2)
C3 C 0.7744(3) 0.0098(3) 0.5691(3)
C4 C 0.7051(3) -0.0074(3) 0.5965(2)
H4 H 0.65030 -0.02650 0.56810
C5 C 0.7105(3) 0.0015(3) 0.6625(3)
C6 C 0.6286(3) -0.0174(2) 0.6867(2)
C7 C 0.5644(3) 0.0470(3) 0.6732(3)
H5 H 0.51510 0.04010 0.69190
H6 H 0.53790 0.05400 0.62600
H7 H 0.60050 0.08660 0.69320
C8 C 0.8214(4) -0.0655(3) 0.4917(3)
H8 H 0.82020 -0.07210 0.44660
H9 H 0.79630 -0.10550 0.50640
H10 H 0.88480 -0.05850 0.51980
C9 C 0.6610(3) -0.0140(3) 0.4523(2)
H11 H 0.62350 0.02410 0.45740
H12 H 0.63820 -0.05560 0.46610
H13 H 0.65750 -0.01800 0.40660
C10 C 0.5735(3) -0.0793(3) 0.6510(3)
H14 H 0.61520 -0.11740 0.65420
H15 H 0.54320 -0.06820 0.60500
H16 H 0.52720 -0.09150 0.67110
C11 C 0.6637(3) -0.0310(3) 0.7616(2)
H17 H 0.70770 -0.06840 0.77120
H18 H 0.61180 -0.04290 0.77620
H19 H 0.69370 0.00960 0.78450
C12 C 0.8390(3) 0.2039(3) 0.6625(2)
H20 H 0.78170 0.19060 0.67060
H21 H 0.83160 0.19390 0.61640
C13 C 0.8548(4) 0.2809(3) 0.6749(3)
H22 H 0.86410 0.29080 0.72090
H23 H 0.80120 0.30580 0.64760
H24 H 0.90920 0.29480 0.66410
C14 C 1.3397(4) 0.2659(3) 0.7460(3)
H25 H 1.40580 0.27440 0.75970
H26 H 1.32690 0.23040 0.77330
H27 H 1.30770 0.30730 0.75070
C15 C 1.3058(4) 0.2429(3) 0.6734(3)
C16 C 1.2003(4) 0.2273(3) 0.6534(3)
C17 C 1.1370(4) 0.2511(2) 0.5936(3)
H28 H 1.16110 0.27810 0.56690
C18 C 1.0414(4) 0.2381(3) 0.5702(3)
C19 C 0.9801(4) 0.2632(3) 0.5011(3)
C20 C 0.8880(4) 0.2908(3) 0.5066(3)
H29 H 0.84960 0.30760 0.46400
H30 H 0.90080 0.32770 0.53840
H31 H 0.85580 0.25450 0.52090
C21 C 1.3293(4) 0.2978(3) 0.6297(3)
H32 H 1.29740 0.33980 0.63260
H33 H 1.30970 0.28230 0.58430
H34 H 1.39560 0.30580 0.64470
C22 C 1.3544(3) 0.1754(3) 0.6664(3)
H35 H 1.42070 0.18280 0.67930
H36 H 1.33160 0.16020 0.62100
H37 H 1.34130 0.14110 0.69470
C23 C 1.0261(4) 0.3206(3) 0.4731(3)
H38 H 1.08330 0.30390 0.46820
H39 H 1.03920 0.35910 0.50300
H40 H 0.98440 0.33470 0.43050
C24 C 0.9622(4) 0.2023(3) 0.4544(3)
H41 H 0.92350 0.21630 0.41090
H42 H 0.93120 0.16670 0.47070
H43 H 1.02070 0.18520 0.45210
C25 C 1.0691(3) 0.0206(3) 0.6571(2)
H44 H 1.13460 0.03040 0.66410
H45 H 1.03410 0.03160 0.61120
C26 C 1.0577(4) -0.0545(3) 0.6694(3)
H46 H 1.09420 -0.06580 0.71430
H47 H 1.07870 -0.08150 0.63910
H48 H 0.99300 -0.06420 0.66260
Co1 Co 0.89976(5) 0.05907(4) 0.69705(3)
Co2 Co 1.04855(5) 0.16795(4) 0.69351(3)
O1 O 0.8534(2) 0.03545(17) 0.60221(16)
O2 O 0.7808(2) 0.02851(17) 0.70712(16)
O3 O 0.9152(2) 0.16457(16) 0.70462(15)
O4 O 1.1773(2) 0.19020(16) 0.69524(17)
O5 O 0.9982(2) 0.20323(17) 0.60196(17)
O6 O 1.0369(2) 0.06291(16) 0.70035(16)
C1B C 1.2007(4) 0.0601(3) 1.0313(2)
H1B H 1.20390 0.05180 1.07650
H2B H 1.13690 0.06830 1.00470
H3B H 1.23790 0.09960 1.02950
C2B C 1.2377(4) -0.0024(3) 1.0047(2)
C3B C 1.2256(3) 0.0098(3) 0.9309(3)
C4B C 1.2949(3) -0.0074(3) 0.9035(2)
H4B H 1.34970 -0.02650 0.93190
C5B C 1.2895(3) 0.0015(3) 0.8375(3)
C6B C 1.3714(3) -0.0174(2) 0.8133(2)
C7B C 1.4356(3) 0.0470(3) 0.8268(3)
H5B H 1.48490 0.04010 0.80810
H6B H 1.46210 0.05400 0.87400
H7B H 1.39950 0.08660 0.80680
C8B C 1.1786(4) -0.0655(3) 1.0083(3)
H8B H 1.17980 -0.07210 1.05340
H9B H 1.20370 -0.10550 0.99360
H10B H 1.11520 -0.05850 0.98020
C9B C 1.3390(3) -0.0140(3) 1.0477(2)
H11B H 1.37650 0.02410 1.04260
H12B H 1.36180 -0.05560 1.03390
H13B H 1.34250 -0.01800 1.09340
C10B C 1.4265(3) -0.0793(3) 0.8490(3)
H14B H 1.38480 -0.11740 0.84580
H15B H 1.45680 -0.06820 0.89500
H16B H 1.47280 -0.09150 0.82890
C11B C 1.3363(3) -0.0310(3) 0.7384(2)
H17B H 1.29230 -0.06840 0.72880
H18B H 1.38820 -0.04290 0.72380
H19B H 1.30630 0.00960 0.71550
C12B C 1.1610(3) 0.2039(3) 0.8375(2)
H20B H 1.21830 0.19060 0.82940
H21B H 1.16840 0.19390 0.88360
C13B C 1.1452(4) 0.2809(3) 0.8251(3)
H22B H 1.13590 0.29080 0.77910
H23B H 1.19880 0.30580 0.85240
H24B H 1.09080 0.29480 0.83590
C14B C 0.6603(4) 0.2659(3) 0.7540(3)
H25B H 0.59420 0.27440 0.74030
H26B H 0.67310 0.23040 0.72670
H27B H 0.69230 0.30730 0.74930
C15B C 0.6942(4) 0.2429(3) 0.8266(3)
C16B C 0.7997(4) 0.2273(3) 0.8466(3)
C17B C 0.8630(4) 0.2511(2) 0.9064(3)
H28B H 0.83890 0.27810 0.93310
C18B C 0.9586(4) 0.2381(3) 0.9298(3)
C19B C 1.0199(4) 0.2632(3) 0.9989(3)
C20B C 1.1120(4) 0.2908(3) 0.9934(3)
H29B H 1.15040 0.30760 1.03600
H30B H 1.09920 0.32770 0.96160
H31B H 1.14420 0.25450 0.97910
C21B C 0.6707(4) 0.2978(3) 0.8703(3)
H32B H 0.70260 0.33980 0.86740
H33B H 0.69030 0.28230 0.91570
H34B H 0.60440 0.30580 0.85530
C22B C 0.6456(3) 0.1754(3) 0.8336(3)
H35B H 0.57930 0.18280 0.82070
H36B H 0.66840 0.16020 0.87900
H37B H 0.65870 0.14110 0.80530
C23B C 0.9739(4) 0.3206(3) 1.0269(3)
H38B H 0.91670 0.30390 1.03180
H39B H 0.96080 0.35910 0.99700
H40B H 1.01560 0.33470 1.06950
C24B C 1.0378(4) 0.2023(3) 1.0456(3)
H41B H 1.07650 0.21630 1.08910
H42B H 1.06880 0.16670 1.02930
H43B H 0.97930 0.18520 1.04790
C25B C 0.9309(3) 0.0206(3) 0.8429(2)
H44B H 0.86540 0.03040 0.83590
H45B H 0.96590 0.03160 0.88880
C26B C 0.9423(4) -0.0545(3) 0.8306(3)
H46B H 0.90580 -0.06580 0.78570
H47B H 0.92130 -0.08150 0.86090
H48B H 1.00700 -0.06420 0.83740
Co1B Co 1.10024(5) 0.05907(4) 0.80295(3)
Co2B Co 0.95145(5) 0.16795(4) 0.80649(3)
O1B O 1.1466(2) 0.03545(17) 0.89779(16)
O2B O 1.2192(2) 0.02851(17) 0.79288(16)
O3B O 1.0848(2) 0.16457(16) 0.79538(15)
O4B O 0.8227(2) 0.19020(16) 0.80476(17)
O5B O 1.0018(2) 0.20323(17) 0.89804(17)
O6B O 0.9631(2) 0.06291(16) 0.79965(16)
#END

data_CSD_CIF_ADUWEC01
_audit_creation_date 2007-10-17
_audit_creation_method CSD-ConQuest-V1
_database_code_CSD ADUWEC01
_database_code_depnum_ccdc_archive 'CCDC 639050'
_chemical_formula_sum 'C52 H96 Co4 O12'
_chemical_formula_moiety
;
C52 H96 Co4 O12
;
_journal_coden_Cambridge 29
_journal_volume 633
_journal_year 2007
_journal_page_first 1371
_journal_name_full 'Z.Anorg.Allg.Chem. '
loop_
_publ_author_name
"M.A.K.Ahmed"
"H.Fjellvag"
"A.Kjekshus"
"P.D.C.Dietzel"
_chemical_name_systematic
;
tetrakis(\m~3~-Ethoxo)-tetrakis(2,2,6,6-tetramethylheptane-3,5-dionato)-tetra-
cobalt(ii)
;
_cell_volume  12285.966
_exptl_crystal_colour 'pink'
_exptl_crystal_density_diffrn 1.242
_exptl_special_details
;
orthorhombic polymorph
air- and moisture-sensitive

;
_exptl_crystal_description 'plate'
_diffrn_ambient_temperature 295
#These two values have been output from a single CSD field.
_refine_ls_R_factor_gt 0.0682
_refine_ls_wR_factor_gt 0.0682
_symmetry_cell_setting orthorhombic
_symmetry_space_group_name_H-M 'F d d d'
_symmetry_Int_Tables_number 70
loop_
_symmetry_equiv_pos_site_id
_symmetry_equiv_pos_as_xyz
1 x,y,z
2 x,1/4-y,1/4-z
3 1/4-x,y,1/4-z
4 1/4-x,1/4-y,z
5 x,1/2+y,1/2+z
6 1/2+x,y,1/2+z
7 1/2+x,1/2+y,z
8 x,3/4-y,3/4-z
9 1/4-x,1/2+y,3/4-z
10 1/4-x,3/4-y,1/2+z
11 1/2+x,1/4-y,3/4-z
12 3/4-x,y,3/4-z
13 3/4-x,1/4-y,1/2+z
14 1/2+x,3/4-y,1/4-z
15 3/4-x,1/2+y,1/4-z
16 3/4-x,3/4-y,z
17 -x,-y,-z
18 -x,-1/4+y,-1/4+z
19 -1/4+x,-y,-1/4+z
20 -1/4+x,-1/4+y,-z
21 -x,-1/2-y,-1/2-z
22 -1/2-x,-y,-1/2-z
23 -1/2-x,-1/2-y,-z
24 -x,-3/4+y,-3/4+z
25 -1/4+x,-1/2-y,-3/4+z
26 -1/4+x,-3/4+y,-1/2-z
27 -1/2-x,-1/4+y,-3/4+z
28 -3/4+x,-y,-3/4+z
29 -3/4+x,-1/4+y,-1/2-z
30 -1/2-x,-3/4+y,-1/4+z
31 -3/4+x,-1/2-y,-1/4+z
32 -3/4+x,-3/4+y,-z
_cell_length_a 15.233(3)
_cell_length_b 19.712(3)
_cell_length_c 40.916(7)
_cell_angle_alpha 90
_cell_angle_beta 90
_cell_angle_gamma 90
_cell_formula_units_Z 8
loop_
_atom_type_symbol
_atom_type_radius_bond
C 0.68
H 0.23
Co 1.31
O 0.68
loop_
_atom_site_label
_atom_site_type_symbol
_atom_site_fract_x
_atom_site_fract_y
_atom_site_fract_z
Co1 Co 0.55029(6) 0.57184(5) 0.15219(2)
O1 O 0.5527(3) 0.5447(2) 0.19848(11)
O2 O 0.4262(3) 0.5439(2) 0.14957(11)
O3 O 0.5633(2) 0.5745(2) 0.10166(9)
C1 C 0.2327(5) 0.5586(5) 0.1661(3)
H1 H 0.25840 0.59640 0.15480
H2 H 0.23070 0.56820 0.18910
H3 H 0.17420 0.55110 0.15810
C2 C 0.2876(5) 0.4959(4) 0.16025(18)
C3 C 0.3818(4) 0.5138(4) 0.17111(19)
C4 C 0.4122(5) 0.4984(4) 0.20229(18)
H4 H 0.37430 0.47500 0.21610
C5 C 0.4940(5) 0.5150(4) 0.21453(18)
C6 C 0.5189(5) 0.4969(4) 0.24983(17)
C7 C 0.4595(9) 0.4494(8) 0.2654(3)
H5 H 0.48490 0.43370 0.28550
H6 H 0.44960 0.41150 0.25120
H7 H 0.40470 0.47150 0.26990
C8 C 0.2855(6) 0.4779(6) 0.1242(2)
H8 H 0.32530 0.44110 0.12010
H9 H 0.30270 0.51670 0.11160
H10 H 0.22710 0.46450 0.11820
C9 C 0.2482(6) 0.4379(6) 0.1789(3)
H11 H 0.19070 0.42820 0.17050
H12 H 0.24390 0.44980 0.20160
H13 H 0.28480 0.39850 0.17660
C10 C 0.5170(11) 0.5600(6) 0.2688(2)
H14 H 0.54440 0.55250 0.28970
H15 H 0.45720 0.57380 0.27210
H16 H 0.54820 0.59480 0.25720
C11 C 0.6066(9) 0.4694(9) 0.2505(2)
H17 H 0.60410 0.42210 0.25600
H18 H 0.64080 0.49300 0.26660
H19 H 0.63330 0.47470 0.22940
C12 C 0.5097(4) 0.5332(4) 0.08083(16)
H20 H 0.52260 0.54380 0.05820
H21 H 0.44840 0.54360 0.08480
C13 C 0.5247(5) 0.4591(4) 0.08650(19)
H22 H 0.58440 0.44800 0.08130
H23 H 0.48590 0.43330 0.07280
H24 H 0.51330 0.44860 0.10900
Co1A Co 0.55029(6) 0.67816(5) 0.09781(2)
Co1B Co 0.69971(6) 0.57184(5) 0.09781(2)
Co1C Co 0.69971(6) 0.67816(5) 0.15219(2)
O1A O 0.5527(3) 0.7053(2) 0.05152(11)
O1B O 0.6973(3) 0.5447(2) 0.05152(11)
O1C O 0.6973(3) 0.7053(2) 0.19848(11)
O2A O 0.4262(3) 0.7061(2) 0.10043(11)
O2B O 0.8238(3) 0.5439(2) 0.10043(11)
O2C O 0.8238(3) 0.7061(2) 0.14957(11)
O3A O 0.5633(2) 0.6755(2) 0.14834(9)
O3B O 0.6867(2) 0.5745(2) 0.14834(9)
O3C O 0.6867(2) 0.6755(2) 0.10166(9)
C1C C 1.0173(5) 0.6914(5) 0.1661(3)
C1B C 1.0173(5) 0.5586(5) 0.0839(3)
C1A C 0.2327(5) 0.6914(5) 0.0839(3)
H1C H 0.99160 0.65360 0.15480
H1B H 0.99160 0.59640 0.09520
H1A H 0.25840 0.65360 0.09520
H2C H 1.01930 0.68180 0.18910
H2B H 1.01930 0.56820 0.06090
H2A H 0.23070 0.68180 0.06090
H3C H 1.07580 0.69890 0.15810
H3B H 1.07580 0.55110 0.09190
H3A H 0.17420 0.69890 0.09190
C2C C 0.9624(5) 0.7541(4) 0.16025(18)
C2B C 0.9624(5) 0.4959(4) 0.08975(18)
C2A C 0.2876(5) 0.7541(4) 0.08975(18)
C3A C 0.3818(4) 0.7362(4) 0.07889(19)
C3B C 0.8682(4) 0.5138(4) 0.07889(19)
C3C C 0.8682(4) 0.7362(4) 0.17111(19)
C4A C 0.4122(5) 0.7516(4) 0.04771(18)
C4B C 0.8378(5) 0.4984(4) 0.04771(18)
C4C C 0.8378(5) 0.7516(4) 0.20229(18)
H4C H 0.87570 0.77500 0.21610
H4B H 0.87570 0.47500 0.03390
H4A H 0.37430 0.77500 0.03390
C5A C 0.4940(5) 0.7350(4) 0.03547(18)
C5B C 0.7560(5) 0.5150(4) 0.03547(18)
C5C C 0.7560(5) 0.7350(4) 0.21453(18)
C6C C 0.7311(5) 0.7531(4) 0.24983(17)
C6B C 0.7311(5) 0.4969(4) 0.00017(17)
C6A C 0.5189(5) 0.7531(4) 0.00017(17)
C7C C 0.7905(9) 0.8006(8) 0.2654(3)
C7B C 0.7905(9) 0.4494(8) -0.0154(3)
C7A C 0.4595(9) 0.8006(8) -0.0154(3)
H5C H 0.76510 0.81630 0.28550
H5B H 0.76510 0.43370 -0.03550
H5A H 0.48490 0.81630 -0.03550
H6C H 0.80040 0.83850 0.25120
H6B H 0.80040 0.41150 -0.00120
H6A H 0.44960 0.83850 -0.00120
H7C H 0.84530 0.77850 0.26990
H7B H 0.84530 0.47150 -0.01990
H7A H 0.40470 0.77850 -0.01990
C8C C 0.9645(6) 0.7721(6) 0.1242(2)
C8B C 0.9645(6) 0.4779(6) 0.1258(2)
C8A C 0.2855(6) 0.7721(6) 0.1258(2)
H8C H 0.92470 0.80890 0.12010
H8B H 0.92470 0.44110 0.12990
H8A H 0.32530 0.80890 0.12990
H9C H 0.94730 0.73330 0.11160
H9B H 0.94730 0.51670 0.13840
H9A H 0.30270 0.73330 0.13840
H10C H 1.02290 0.78550 0.11820
H10B H 1.02290 0.46450 0.13180
H10A H 0.22710 0.78550 0.13180
C9C C 1.0018(6) 0.8121(6) 0.1789(3)
C9B C 1.0018(6) 0.4379(6) 0.0711(3)
C9A C 0.2482(6) 0.8121(6) 0.0711(3)
H11C H 1.05930 0.82180 0.17050
H11B H 1.05930 0.42820 0.07950
H11A H 0.19070 0.82180 0.07950
H12C H 1.00610 0.80020 0.20160
H12B H 1.00610 0.44980 0.04840
H12A H 0.24390 0.80020 0.04840
H13C H 0.96520 0.85150 0.17660
H13B H 0.96520 0.39850 0.07340
H13A H 0.28480 0.85150 0.07340
C10C C 0.7330(11) 0.6900(6) 0.2688(2)
C10B C 0.7330(11) 0.5600(6) -0.0188(2)
C10A C 0.5170(11) 0.6900(6) -0.0188(2)
H14C H 0.70560 0.69750 0.28970
H14B H 0.70560 0.55250 -0.03970
H14A H 0.54440 0.69750 -0.03970
H15C H 0.79280 0.67620 0.27210
H15B H 0.79280 0.57380 -0.02210
H15A H 0.45720 0.67620 -0.02210
H16C H 0.70180 0.65520 0.25720
H16B H 0.70180 0.59480 -0.00720
H16A H 0.54820 0.65520 -0.00720
C11C C 0.6434(9) 0.7806(9) 0.2505(2)
C11B C 0.6434(9) 0.4694(9) -0.0005(2)
C11A C 0.6066(9) 0.7806(9) -0.0005(2)
H17C H 0.64590 0.82790 0.25600
H17B H 0.64590 0.42210 -0.00600
H17A H 0.60410 0.82790 -0.00600
H18C H 0.60920 0.75700 0.26660
H18B H 0.60920 0.49300 -0.01660
H18A H 0.64080 0.75700 -0.01660
H19C H 0.61670 0.77530 0.22940
H19B H 0.61670 0.47470 0.02060
H19A H 0.63330 0.77530 0.02060
C12B C 0.7403(4) 0.5332(4) 0.16917(16)
C12A C 0.5097(4) 0.7168(4) 0.16917(16)
C12C C 0.7403(4) 0.7168(4) 0.08083(16)
H20B H 0.72740 0.54380 0.19180
H20A H 0.52260 0.70620 0.19180
H20C H 0.72740 0.70620 0.05820
H21B H 0.80160 0.54360 0.16520
H21A H 0.44840 0.70640 0.16520
H21C H 0.80160 0.70640 0.08480
C13B C 0.7253(5) 0.4591(4) 0.16350(19)
C13A C 0.5247(5) 0.7909(4) 0.16350(19)
C13C C 0.7253(5) 0.7909(4) 0.08650(19)
H22B H 0.66560 0.44800 0.16870
H22A H 0.58440 0.80200 0.16870
H22C H 0.66560 0.80200 0.08130
H23B H 0.76410 0.43330 0.17720
H23A H 0.48590 0.81670 0.17720
H23C H 0.76410 0.81670 0.07280
H24B H 0.73670 0.44860 0.14100
H24A H 0.51330 0.80140 0.14100
H24C H 0.73670 0.80140 0.10900
#END

data_CSD_CIF_CALMAM10
_audit_creation_date 1978-03-30
_audit_creation_method CSD-ConQuest-V1
_database_code_CSD CALMAM10
_chemical_formula_sum 'C4 H14 Al1 Cl3 N2'
_chemical_formula_moiety
;
C4 H14 Al1 Cl3 N2
;
_journal_coden_Cambridge 29
_journal_volume 434
_journal_year 1977
_journal_page_first 207
_journal_name_full 'Z.Anorg.Allg.Chem. '
loop_
_publ_author_name
"A.Ahmed"
"W.Schwarz"
"J.Weidlein"
"H.Hess"
_chemical_name_systematic
;
bis(Dimethylamido) trichloroaluminium
;
_cell_volume   2186.834
_exptl_crystal_density_diffrn 1.358
_exptl_special_details
;
H2 and H4 deleted; suspected coordinate errors

;
_diffrn_ambient_temperature ?
_diffrn_special_details
;
The study was carried out at room temperature,in the range 283-303K

;
#These two values have been output from a single CSD field.
_refine_ls_R_factor_gt 0.05
_refine_ls_wR_factor_gt 0.05
_symmetry_cell_setting monoclinic
_symmetry_space_group_name_H-M 'P 21/c'
_symmetry_Int_Tables_number 14
loop_
_symmetry_equiv_pos_site_id
_symmetry_equiv_pos_as_xyz
1 x,y,z
2 -x,1/2+y,1/2-z
3 -x,-y,-z
4 x,-1/2-y,-1/2+z
_cell_length_a 6.422(1)
_cell_length_b 24.491(4)
_cell_length_c 13.963(2)
_cell_angle_alpha 90
_cell_angle_beta 95.27(1)
_cell_angle_gamma 90
_cell_formula_units_Z 8
loop_
_atom_type_symbol
_atom_type_radius_bond
C 0.68
H 0.23
Al 1.35
Cl 0.99
N 0.68
loop_
_atom_site_label
_atom_site_type_symbol
_atom_site_fract_x
_atom_site_fract_y
_atom_site_fract_z
Al1 Al 0.04710 0.09750 0.15300
Cl1 Cl 0.21530 0.10310 0.02530
Cl2 Cl -0.23280 0.04950 0.16830
Cl3 Cl 0.18380 0.14580 0.27390
N1 N 0.23140 0.03210 0.19620
N2 N -0.12830 0.16430 0.10220
C1 C 0.22310 0.01240 0.29680
C2 C 0.21370 -0.01610 0.13110
C3 C -0.27420 0.18740 0.16720
C4 C -0.25270 0.15460 0.00370
Al2 Al 0.07100 0.35140 0.09050
Cl4 Cl 0.24120 0.42450 0.05480
Cl5 Cl -0.18850 0.35020 0.18150
Cl6 Cl 0.18050 0.27510 0.03070
N3 N 0.27930 0.34230 0.21040
N4 N -0.12600 0.36380 -0.03170
C5 C 0.27230 0.29030 0.26560
C6 C 0.29020 0.38820 0.27980
C7 C -0.23790 0.41660 -0.03860
C8 C -0.28700 0.31790 -0.05450
H1 H 0.38700 0.04300 0.19300
H2 H 0.08400 -0.00800 0.30200
H3 H 0.23600 0.04200 0.34500
H4 H 0.33700 -0.01600 0.31500
H5 H 0.33000 -0.04400 0.14900
H6 H 0.22300 -0.00500 0.06200
H7 H 0.07700 -0.03500 0.13600
H8 H -0.33500 0.22400 0.14400
H9 H -0.20000 0.19500 0.23500
H10 H -0.39600 0.16300 0.17700
H11 H -0.37100 0.12900 0.00900
H12 H -0.15800 0.13900 -0.04400
H13 H -0.30900 0.19000 -0.02400
H14 H 0.42800 0.33800 0.18800
H15 H 0.40000 0.28700 0.31300
H16 H 0.26900 0.25800 0.22100
H17 H 0.14500 0.29000 0.30100
H18 H 0.16200 0.38800 0.31600
H19 H 0.29700 0.42400 0.24600
H20 H 0.41700 0.38500 0.32800
H21 H -0.30600 0.42300 -0.10600
H22 H -0.13400 0.44700 -0.02300
H23 H -0.34700 0.41900 0.00800
H24 H -0.40300 0.32000 -0.01000
H25 H -0.22200 0.28200 -0.05300
H26 H -0.36100 0.32400 -0.12300
#END

data_CSD_CIF_FECWAL01
_audit_creation_date 2011-04-07
_audit_creation_method CSD-ConQuest-V1
_database_code_CSD FECWAL01
_database_code_depnum_ccdc_archive 'CCDC 786169'
_chemical_formula_sum 'C33 H57 Cr1 O6'
_chemical_formula_moiety
;
C33 H57 Cr1 O6
;
_journal_coden_Cambridge 29
_journal_volume 636
_journal_year 2010
_journal_page_first 2422
_journal_name_full 'Z.Anorg.Allg.Chem. '
loop_
_publ_author_name
"M.A.K.Ahmed"
"H.Fjellvag"
"A.Kjekshus"
"R.K.Birkedal"
"P.Norby"
"D.S.Wragg"
"N.S.Gupta"
_chemical_name_systematic
;
tris(2,2,6,6-Tetramethylheptane-3,5-dionato-O,O')-chromium(iii)
;
_cell_volume   3813.445
_exptl_crystal_colour 'red'
_exptl_crystal_density_diffrn 1.048
_exptl_special_details
;
thermodynamically stable polymorph 1
Isotypic with the Mn analogue
Complex series of phase transitions between 5 polymorphic forms, depending on 
heating rate and exposure to X-rays
;
_exptl_crystal_description 'needle'
_exptl_crystal_preparation 'sublimation'
_diffrn_ambient_temperature 293
#These two values have been output from a single CSD field.
_refine_ls_R_factor_gt 0.0755
_refine_ls_wR_factor_gt 0.0755
_symmetry_cell_setting monoclinic
_symmetry_space_group_name_H-M 'C 2/c'
_symmetry_Int_Tables_number 15
loop_
_symmetry_equiv_pos_site_id
_symmetry_equiv_pos_as_xyz
1 x,y,z
2 -x,y,1/2-z
3 1/2+x,1/2+y,z
4 1/2-x,1/2+y,1/2-z
5 -x,-y,-z
6 x,-y,-1/2+z
7 -1/2-x,-1/2-y,-z
8 -1/2+x,-1/2-y,-1/2+z
_cell_length_a 9.927(5)
_cell_length_b 18.010(5)
_cell_length_c 21.427(5)
_cell_angle_alpha 90
_cell_angle_beta 95.461(5)
_cell_angle_gamma 90
_cell_formula_units_Z 4
loop_
_atom_type_symbol
_atom_type_radius_bond
C 0.68
H 0.23
Cr 1.39
O 0.68
loop_
_atom_site_label
_atom_site_type_symbol
_atom_site_fract_x
_atom_site_fract_y
_atom_site_fract_z
Cr1 Cr 0.00000 0.06227(15) 0.25000
O1 O -0.1720(7) 0.0594(4) 0.1992(3)
O2 O 0.0654(7) 0.1367(4) 0.1950(4)
O3 O 0.0729(9) -0.0132(5) 0.1981(3)
C1 C -0.1962(13) 0.0820(7) 0.1447(7)
C2 C -0.1092(17) 0.1261(7) 0.1130(6)
H1 H -0.13610 0.13890 0.07170
C3 C 0.0711(15) -0.0799(10) 0.2049(6)
C4 C -0.3323(14) 0.0576(10) 0.1118(6)
C5 C 0.154(2) -0.1238(11) 0.1593(9)
C6 C 0.00000 -0.1177(11) 0.25000
H2 H 0.00000 -0.16930 0.25000
C7 C -0.3832(15) 0.1022(10) 0.0548(7)
H3 H -0.39310 0.15320 0.06650
H4 H -0.46920 0.08310 0.03780
H5 H -0.31970 0.09870 0.02380
C8 C -0.4375(15) 0.0676(11) 0.1578(8)
H6 H -0.44830 0.11950 0.16620
H7 H -0.40870 0.04220 0.19620
H8 H -0.52230 0.04740 0.14030
C9 C 0.105(3) -0.0996(13) 0.0945(9)
H9 H 0.01220 -0.11360 0.08520
H10 H 0.15890 -0.12300 0.06510
H11 H 0.11340 -0.04670 0.09130
C10 C 0.295(2) -0.1072(15) 0.1761(12)
H12 H 0.30910 -0.05470 0.17270
H13 H 0.34890 -0.13300 0.14820
H14 H 0.31990 -0.12290 0.21840
C11 C -0.3180(19) -0.0231(11) 0.0967(10)
H15 H -0.25290 -0.02890 0.06680
H16 H -0.40390 -0.04220 0.07950
H17 H -0.28830 -0.04980 0.13430
C12 C 0.136(2) -0.2045(13) 0.1637(10)
H18 H 0.04330 -0.21710 0.15100
H19 H 0.15860 -0.22020 0.20630
H20 H 0.19390 -0.22900 0.13690
C13 C 0.1086(16) 0.2017(8) 0.1033(6)
C14 C 0.0262(15) 0.2505(9) 0.0545(7)
H21 H -0.02670 0.21940 0.02520
H22 H 0.08680 0.28010 0.03250
H23 H -0.03270 0.28240 0.07530
C15 C 0.0150(17) 0.1521(7) 0.1395(6)
C16 C 0.191(2) 0.2495(13) 0.1461(9)
H24 H 0.13380 0.28020 0.16880
H25 H 0.24730 0.28030 0.12260
H26 H 0.24750 0.21950 0.17500
C17 C 0.188(2) 0.1512(10) 0.0645(10)
H27 H 0.12720 0.12240 0.03680
H28 H 0.24320 0.11850 0.09170
H29 H 0.24530 0.18040 0.04040
O1A O 0.1720(7) 0.0594(4) 0.3008(3)
O2A O -0.0654(7) 0.1367(4) 0.3050(4)
O3A O -0.0729(9) -0.0132(5) 0.3019(3)
C1A C 0.1962(13) 0.0820(7) 0.3553(7)
C2A C 0.1092(17) 0.1261(7) 0.3870(6)
H1A H 0.13610 0.13890 0.42830
C3A C -0.0711(15) -0.0799(10) 0.2951(6)
C4A C 0.3323(14) 0.0576(10) 0.3882(6)
C5A C -0.154(2) -0.1238(11) 0.3407(9)
C7A C 0.3832(15) 0.1022(10) 0.4452(7)
H3A H 0.39310 0.15320 0.43350
H4A H 0.46920 0.08310 0.46220
H5A H 0.31970 0.09870 0.47620
C8A C 0.4375(15) 0.0676(11) 0.3422(8)
H6A H 0.44830 0.11950 0.33380
H7A H 0.40870 0.04220 0.30380
H8A H 0.52230 0.04740 0.35970
C9A C -0.105(3) -0.0996(13) 0.4055(9)
H9A H -0.01220 -0.11360 0.41480
H10A H -0.15890 -0.12300 0.43490
H11A H -0.11340 -0.04670 0.40870
C10A C -0.295(2) -0.1072(15) 0.3239(12)
H12A H -0.30910 -0.05470 0.32730
H13A H -0.34890 -0.13300 0.35180
H14A H -0.31990 -0.12290 0.28160
C11A C 0.3180(19) -0.0231(11) 0.4033(10)
H15A H 0.25290 -0.02890 0.43320
H16A H 0.40390 -0.04220 0.42050
H17A H 0.28830 -0.04980 0.36570
C12A C -0.136(2) -0.2045(13) 0.3363(10)
H18A H -0.04330 -0.21710 0.34900
H19A H -0.15860 -0.22020 0.29370
H20A H -0.19390 -0.22900 0.36310
C13A C -0.1086(16) 0.2017(8) 0.3967(6)
C14A C -0.0262(15) 0.2505(9) 0.4455(7)
H21A H 0.02670 0.21940 0.47480
H22A H -0.08680 0.28010 0.46750
H23A H 0.03270 0.28240 0.42470
C15A C -0.0150(17) 0.1521(7) 0.3605(6)
C16A C -0.191(2) 0.2495(13) 0.3539(9)
H24A H -0.13380 0.28020 0.33120
H25A H -0.24730 0.28030 0.37740
H26A H -0.24750 0.21950 0.32500
C17A C -0.188(2) 0.1512(10) 0.4355(10)
H27A H -0.12720 0.12240 0.46320
H28A H -0.24320 0.11850 0.40830
H29A H -0.24530 0.18040 0.45960
#END

data_CSD_CIF_FECWAL02
_audit_creation_date 2011-04-07
_audit_creation_method CSD-ConQuest-V1
_database_code_CSD FECWAL02
_database_code_depnum_ccdc_archive 'CCDC 786170'
_chemical_formula_sum 'C33 H57 Cr1 O6'
_chemical_formula_moiety
;
C33 H57 Cr1 O6
;
_journal_coden_Cambridge 29
_journal_volume 636
_journal_year 2010
_journal_page_first 2422
_journal_name_full 'Z.Anorg.Allg.Chem. '
loop_
_publ_author_name
"M.A.K.Ahmed"
"H.Fjellvag"
"A.Kjekshus"
"R.K.Birkedal"
"P.Norby"
"N.S.Gupta"
"D.S.Wragg"
_chemical_name_systematic
;
tris(2,2,6,6-Tetramethylheptane-3,5-dionato-O,O')-chromium(iii)
;
_cell_volume  11126.702
_exptl_crystal_colour 'red'
_exptl_crystal_density_diffrn 1.078
_exptl_special_details
;
metastable polymorph 4
Isotypic with the monoclinic cobalt analogue
Complex series of phase transitions between 5 polymorphic forms, depending on 
heating rate and exposure to X-rays
;
_exptl_crystal_description 'needle'
_exptl_crystal_preparation 'sublimation'
_diffrn_ambient_temperature 110
#These two values have been output from a single CSD field.
_refine_ls_R_factor_gt 0.0473
_refine_ls_wR_factor_gt 0.0473
_symmetry_cell_setting monoclinic
_symmetry_space_group_name_H-M 'C 2/c'
_symmetry_Int_Tables_number 15
loop_
_symmetry_equiv_pos_site_id
_symmetry_equiv_pos_as_xyz
1 x,y,z
2 -x,y,1/2-z
3 1/2+x,1/2+y,z
4 1/2-x,1/2+y,1/2-z
5 -x,-y,-z
6 x,-y,-1/2+z
7 -1/2-x,-1/2-y,-z
8 -1/2+x,-1/2-y,-1/2+z
_cell_length_a 27.924(3)
_cell_length_b 18.6192(19)
_cell_length_c 21.627(2)
_cell_angle_alpha 90
_cell_angle_beta 98.296(1)
_cell_angle_gamma 90
_cell_formula_units_Z 12
loop_
_atom_type_symbol
_atom_type_radius_bond
C 0.68
H 0.23
Cr 1.39
O 0.68
loop_
_atom_site_label
_atom_site_type_symbol
_atom_site_fract_x
_atom_site_fract_y
_atom_site_fract_z
C1 C 0.29169(10) 0.3772(2) 0.93430(16)
H1 H 0.27680 0.33060 0.93050
H2 H 0.29910 0.38960 0.97770
H3 H 0.32100 0.37630 0.91580
C2 C 0.28509(11) 0.4198(3) 1.1851(2)
H4 H 0.28420 0.46070 1.21200
H5 H 0.28680 0.43580 1.14330
H6 H 0.31300 0.39110 1.19960
Cr1 Cr 0.50000 0.51411(2) 0.25000
O1 O 0.54055(5) 0.58798(7) 0.22049(6)
O2 O 0.45882(5) 0.51439(8) 0.16939(6)
O3 O 0.54021(5) 0.44004(7) 0.21987(6)
C3 C 0.50000 0.69066(15) 0.25000
H7 H 0.50000 0.74060 0.25000
C4 C 0.46154(7) 0.47507(10) 0.12174(9)
C5 C 0.42133(7) 0.48961(11) 0.06729(9)
C6 C 0.53434(7) 0.40812(10) 0.16759(9)
C7 C 0.57381(7) 0.35303(11) 0.16036(10)
C8 C 0.53636(7) 0.65571(10) 0.22357(8)
C9 C 0.49690(7) 0.42266(10) 0.11893(9)
H8 H 0.49550 0.39580 0.08250
C10 C 0.57589(8) 0.69653(12) 0.19595(10)
C11 C 0.42084(10) 0.57045(13) 0.05400(12)
H9 H 0.41650 0.59630 0.09120
H10 H 0.39480 0.58150 0.02140
H11 H 0.45100 0.58430 0.04110
C12 C 0.42730(8) 0.44893(13) 0.00752(10)
H12 H 0.42770 0.39820 0.01560
H13 H 0.45720 0.46280 -0.00620
H14 H 0.40080 0.46020 -0.02440
C13 C 0.56868(10) 0.77760(13) 0.19417(14)
H15 H 0.59400 0.79970 0.17530
H16 H 0.56950 0.79540 0.23600
H17 H 0.53790 0.78880 0.17010
C14 C 0.56224(8) 0.30446(13) 0.10329(11)
H18 H 0.55820 0.33320 0.06610
H19 H 0.53290 0.27840 0.10600
H20 H 0.58830 0.27120 0.10200
C15 C 0.58304(11) 0.30770(14) 0.21954(12)
H21 H 0.59010 0.33860 0.25520
H22 H 0.61010 0.27640 0.21730
H23 H 0.55480 0.27950 0.22340
C16 C 0.37385(8) 0.46840(16) 0.08962(12)
H24 H 0.37410 0.41790 0.09840
H25 H 0.34730 0.47930 0.05760
H26 H 0.37030 0.49470 0.12680
C17 C 0.57560(12) 0.66968(16) 0.12907(13)
H27 H 0.59980 0.69490 0.11030
H28 H 0.54440 0.67820 0.10530
H29 H 0.58250 0.61910 0.12970
C18 C 0.62404(9) 0.6780(2) 0.23566(17)
H30 H 0.64980 0.70210 0.21920
H31 H 0.62910 0.62710 0.23480
H32 H 0.62340 0.69320 0.27800
C19 C 0.61943(8) 0.39681(15) 0.15307(15)
H33 H 0.61360 0.42480 0.11540
H34 H 0.64610 0.36470 0.15090
H35 H 0.62700 0.42820 0.18830
Cr2 Cr 0.163509(12) 0.490421(18) 1.032745(16)
O4 O 0.11740(6) 0.50408(8) 1.09134(7)
O5 O 0.21068(6) 0.47862(8) 0.97510(7)
O6 O 0.12560(5) 0.41162(8) 0.99193(7)
O7 O 0.12657(6) 0.55881(8) 0.97701(7)
O8 O 0.20228(6) 0.56844(8) 1.07298(7)
O9 O 0.20025(6) 0.42427(8) 1.09150(8)
C20 C 0.19778(7) 0.63598(12) 1.06368(9)
C21 C 0.12382(8) 0.49040(11) 1.14957(11)
C22 C 0.19823(8) 0.41920(11) 1.15010(11)
C23 C 0.21136(7) 0.43254(11) 0.93294(9)
C24 C 0.13478(7) 0.37301(10) 0.94711(9)
C25 C 0.16189(7) 0.66667(12) 1.02026(10)
H36 H 0.16040 0.71650 1.01790
C26 C 0.12793(8) 0.62727(12) 0.97993(9)
C27 C 0.16261(8) 0.45088(12) 1.18019(11)
H37 H 0.16490 0.44530 1.22320
C28 C 0.08379(8) 0.52015(12) 1.18387(12)
C29 C 0.23515(8) 0.68060(13) 1.10597(10)
C30 C 0.17546(9) 0.38088(13) 0.91792(11)
H38 H 0.17910 0.34910 0.88570
C31 C 0.25658(9) 0.43346(16) 0.90035(12)
C32 C 0.08634(8) 0.66345(13) 0.93698(10)
C33 C 0.23982(9) 0.37547(14) 1.18574(14)
C34 C 0.09611(9) 0.31615(13) 0.92683(11)
C35 C 0.24481(10) 0.41428(18) 0.83062(12)
H39 H 0.23140 0.36670 0.82630
H40 H 0.27390 0.41610 0.81180
H41 H 0.22180 0.44800 0.81020
C36 C 0.23246(10) 0.76108(13) 1.09152(12)
H42 H 0.24160 0.76940 1.05100
H43 H 0.25410 0.78650 1.12250
H44 H 0.20000 0.77780 1.09200
C37 C 0.22586(12) 0.66824(16) 1.17341(11)
H45 H 0.24820 0.69640 1.20140
H46 H 0.23020 0.61830 1.18370
H47 H 0.19330 0.68230 1.17730
C38 C 0.28057(12) 0.50642(19) 0.90822(16)
H48 H 0.30770 0.50770 0.88550
H49 H 0.29150 0.51500 0.95170
H50 H 0.25770 0.54280 0.89240
C39 C 0.08584(11) 0.27553(15) 0.98418(14)
H51 H 0.07930 0.30910 1.01560
H52 H 0.11350 0.24690 1.00010
H53 H 0.05830 0.24490 0.97320
C40 C 0.23376(12) 0.36081(18) 1.25400(15)
H54 H 0.23140 0.40560 1.27540
H55 H 0.26120 0.33440 1.27400
H56 H 0.20480 0.33330 1.25530
C41 C 0.0924(1) 0.74385(15) 0.93049(13)
H57 H 0.09310 0.76620 0.97060
H58 H 0.06580 0.76270 0.90210
H59 H 0.12210 0.75360 0.91470
C42 C 0.09079(13) 0.5007(2) 1.25300(15)
H60 H 0.12070 0.52070 1.27310
H61 H 0.09160 0.44940 1.25750
H62 H 0.06450 0.51980 1.27200
C43 C 0.28522(9) 0.65219(17) 1.09774(14)
H63 H 0.29150 0.66260 1.05620
H64 H 0.28620 0.60120 1.10430
H65 H 0.30930 0.67490 1.12750
C44 C 0.08239(10) 0.62851(17) 0.87272(11)
H66 H 0.05750 0.65200 0.84460
H67 H 0.07440 0.57860 0.87600
H68 H 0.11270 0.63290 0.85710
C45 C 0.0826(1) 0.60139(13) 1.17562(14)
H69 H 0.11200 0.62170 1.19690
H70 H 0.05550 0.62080 1.19280
H71 H 0.07950 0.61280 1.13200
C46 C 0.10989(16) 0.2640(2) 0.8792(2)
H72 H 0.11520 0.28970 0.84230
H73 H 0.08430 0.22980 0.86870
H74 H 0.13900 0.23930 0.89620
C47 C 0.05006(11) 0.3569(2) 0.9007(2)
H75 H 0.05540 0.38280 0.86390
H76 H 0.04190 0.39000 0.93150
H77 H 0.02400 0.32340 0.89020
C48 C 0.03567(10) 0.48840(15) 1.15252(18)
H78 H 0.03710 0.43690 1.15490
H79 H 0.02990 0.50290 1.10950
H80 H 0.00980 0.50540 1.17350
C49 C 0.24232(17) 0.3044(2) 1.1525(2)
H81 H 0.21150 0.28080 1.14920
H82 H 0.26660 0.27470 1.17580
H83 H 0.25040 0.31260 1.11140
C50 C 0.03998(9) 0.64806(18) 0.96468(13)
H84 H 0.04170 0.67120 1.00460
H85 H 0.03650 0.59720 0.96970
H86 H 0.01260 0.66610 0.93710
O1A O 0.45945(5) 0.58798(7) 0.27951(6)
O2A O 0.54118(5) 0.51439(8) 0.33061(6)
O3A O 0.45979(5) 0.44004(7) 0.28013(6)
C4A C 0.53846(7) 0.47507(10) 0.37826(9)
C5A C 0.57867(7) 0.48961(11) 0.43271(9)
C6A C 0.46566(7) 0.40812(10) 0.33241(9)
C7A C 0.42619(7) 0.35303(11) 0.33964(10)
C8A C 0.46364(7) 0.65571(10) 0.27643(8)
C9A C 0.50310(7) 0.42266(10) 0.38107(9)
H8A H 0.50450 0.39580 0.41750
C10A C 0.42411(8) 0.69653(12) 0.30405(10)
C11A C 0.57916(10) 0.57045(13) 0.44600(12)
H9A H 0.58350 0.59630 0.40880
H10A H 0.60520 0.58150 0.47860
H11A H 0.54900 0.58430 0.45890
C12A C 0.57270(8) 0.44893(13) 0.49248(10)
H12A H 0.57230 0.39820 0.48440
H13A H 0.54280 0.46280 0.50620
H14A H 0.59920 0.46020 0.52440
C13A C 0.43132(10) 0.77760(13) 0.30583(14)
H15A H 0.40600 0.79970 0.32470
H16A H 0.43050 0.79540 0.26400
H17A H 0.46210 0.78880 0.32990
C14A C 0.43776(8) 0.30446(13) 0.39671(11)
H18A H 0.44180 0.33320 0.43390
H19A H 0.46710 0.27840 0.39400
H20A H 0.41170 0.27120 0.39800
C15A C 0.41696(11) 0.30770(14) 0.28046(12)
H21A H 0.40990 0.33860 0.24480
H22A H 0.38990 0.27640 0.28270
H23A H 0.44520 0.27950 0.27660
C16A C 0.62615(8) 0.46840(16) 0.41038(12)
H24A H 0.62590 0.41790 0.40160
H25A H 0.65270 0.47930 0.44240
H26A H 0.62970 0.49470 0.37320
C17A C 0.42440(12) 0.66968(16) 0.37093(13)
H27A H 0.40020 0.69490 0.38970
H28A H 0.45560 0.67820 0.39470
H29A H 0.41750 0.61910 0.37030
C18A C 0.37596(9) 0.6780(2) 0.26434(17)
H30A H 0.35020 0.70210 0.28080
H31A H 0.37090 0.62710 0.26520
H32A H 0.37660 0.69320 0.22200
C19A C 0.38057(8) 0.39681(15) 0.34693(15)
H33A H 0.38640 0.42480 0.38460
H34A H 0.35390 0.36470 0.34910
H35A H 0.37300 0.42820 0.31170
#END

data_CSD_CIF_FECWAL03
_audit_creation_date 2011-04-07
_audit_creation_method CSD-ConQuest-V1
_database_code_CSD FECWAL03
_database_code_depnum_ccdc_archive 'CCDC 786171'
_chemical_formula_sum 'C33 H57 Cr1 O6'
_chemical_formula_moiety
;
C33 H57 Cr1 O6
;
_journal_coden_Cambridge 29
_journal_volume 636
_journal_year 2010
_journal_page_first 2422
_journal_name_full 'Z.Anorg.Allg.Chem. '
loop_
_publ_author_name
"M.A.K.Ahmed"
"H.Fjellvag"
"A.Kjekshus"
"R.K.Birkedal"
"P.Norby"
"N.S.Gupta"
"D.S.Wragg"
_chemical_name_systematic
;
tris(2,2,6,6-Tetramethylheptane-3,5-dionato-O,O')-chromium(iii)
;
_cell_volume  11876.549
_exptl_crystal_colour 'red'
_exptl_crystal_density_diffrn 1.01
_exptl_special_details
;
metastable polymorph 4
Isotypic with the monoclinic cobalt analogue
Complex series of phase transitions between 5 polymorphic forms, depending on 
heating rate and exposure to X-rays
;
_exptl_crystal_description 'needle'
_exptl_crystal_preparation 'sublimation'
_diffrn_ambient_temperature 293
#These two values have been output from a single CSD field.
_refine_ls_R_factor_gt 0.0652
_refine_ls_wR_factor_gt 0.0652
_symmetry_cell_setting monoclinic
_symmetry_space_group_name_H-M 'C 2/c'
_symmetry_Int_Tables_number 15
loop_
_symmetry_equiv_pos_site_id
_symmetry_equiv_pos_as_xyz
1 x,y,z
2 -x,y,1/2-z
3 1/2+x,1/2+y,z
4 1/2-x,1/2+y,1/2-z
5 -x,-y,-z
6 x,-y,-1/2+z
7 -1/2-x,-1/2-y,-z
8 -1/2+x,-1/2-y,-1/2+z
_cell_length_a 28.54(3)
_cell_length_b 19.14(2)
_cell_length_c 21.92(2)
_cell_angle_alpha 90
_cell_angle_beta 97.312(16)
_cell_angle_gamma 90
_cell_formula_units_Z 12
loop_
_atom_type_symbol
_atom_type_radius_bond
C 0.68
H 0.23
Cr 1.39
O 0.68
loop_
_atom_site_label
_atom_site_type_symbol
_atom_site_fract_x
_atom_site_fract_y
_atom_site_fract_z
C1 C 0.2908(3) 0.3973(8) 0.9327(5)
H1 H 0.27940 0.35020 0.93160
H2 H 0.29650 0.41290 0.97460
H3 H 0.31980 0.39920 0.91470
C2 C 0.2786(3) 0.4103(7) 1.1843(7)
H4 H 0.27460 0.44880 1.21120
H5 H 0.28560 0.42770 1.14540
H6 H 0.30410 0.38130 1.20240
Cr1 Cr 0.50000 0.51066(5) 0.25000
O1 O 0.53938(11) 0.58288(17) 0.21939(13)
O2 O 0.45955(11) 0.51066(16) 0.17145(15)
O3 O 0.53902(11) 0.43885(16) 0.21927(15)
C3 C 0.50000 0.6819(3) 0.25000
H7 H 0.50000 0.73050 0.25000
C4 C 0.46217(15) 0.4716(2) 0.1254(2)
C5 C 0.42179(18) 0.4844(3) 0.0728(2)
C6 C 0.53247(16) 0.4067(2) 0.1684(2)
C7 C 0.56996(19) 0.3512(3) 0.1613(2)
C8 C 0.53518(15) 0.6488(2) 0.22250(18)
C9 C 0.49630(16) 0.4209(2) 0.1220(2)
H8 H 0.49480 0.39470 0.08610
C10 C 0.57303(18) 0.6886(3) 0.1935(2)
C11 C 0.4211(3) 0.5611(4) 0.0586(3)
H9 H 0.41680 0.58700 0.09490
H10 H 0.39560 0.57100 0.02680
H11 H 0.45050 0.57430 0.04490
C12 C 0.4281(2) 0.4463(4) 0.0135(3)
H12 H 0.42850 0.39680 0.02070
H13 H 0.45740 0.46030 -0.00010
H14 H 0.40240 0.45770 -0.01760
C13 C 0.5669(3) 0.7668(3) 0.1931(4)
H15 H 0.59200 0.78810 0.17450
H16 H 0.56780 0.78330 0.23460
H17 H 0.53710 0.77870 0.17010
C14 C 0.5596(3) 0.3056(4) 0.1045(4)
H18 H 0.55570 0.33450 0.06840
H19 H 0.53120 0.27950 0.10680
H20 H 0.58550 0.27390 0.10230
C15 C 0.5777(4) 0.3088(5) 0.2170(4)
H21 H 0.58460 0.33870 0.25220
H22 H 0.60380 0.27770 0.21460
H23 H 0.54980 0.28200 0.22100
C16 C 0.3766(2) 0.4625(5) 0.0962(4)
H24 H 0.37750 0.41320 0.10450
H25 H 0.35030 0.47270 0.06570
H26 H 0.37320 0.48750 0.13330
C17 C 0.5725(4) 0.6641(5) 0.1284(4)
H27 H 0.59630 0.68870 0.10960
H28 H 0.54200 0.67310 0.10580
H29 H 0.57890 0.61490 0.12810
C18 C 0.6201(2) 0.6705(5) 0.2307(5)
H30 H 0.64500 0.69460 0.21390
H31 H 0.62530 0.62100 0.22890
H32 H 0.61970 0.68440 0.27270
C19 C 0.6152(3) 0.3898(5) 0.1551(6)
H33 H 0.61110 0.41800 0.11860
H34 H 0.64020 0.35680 0.15240
H35 H 0.62320 0.41920 0.19040
Cr2 Cr 0.16528(3) 0.49650(4) 1.03254(3)
O4 O 0.12052(12) 0.50825(17) 1.09206(16)
O5 O 0.21089(11) 0.48542(17) 0.97358(16)
O6 O 0.12804(11) 0.42015(16) 0.99288(16)
O7 O 0.12967(11) 0.56418(17) 0.97914(13)
O8 O 0.20303(12) 0.57181(18) 1.07260(14)
O9 O 0.20107(12) 0.43039(17) 1.08726(18)
C20 C 0.19782(16) 0.6375(3) 1.0652(2)
C21 C 0.12424(17) 0.4870(2) 1.1473(3)
C22 C 0.19620(19) 0.4174(2) 1.1427(3)
C23 C 0.21072(16) 0.4413(3) 0.9312(2)
C24 C 0.13651(17) 0.3828(2) 0.9482(2)
C25 C 0.16354(17) 0.6679(3) 1.0228(2)
H36 H 0.16190 0.71640 1.02180
C26 C 0.13136(17) 0.6309(3) 0.9816(2)
C27 C 0.16016(19) 0.4441(3) 1.1732(3)
H37 H 0.16040 0.43200 1.21440
C28 C 0.0844(2) 0.5122(3) 1.1822(3)
C29 C 0.2318(2) 0.6815(3) 1.1090(2)
C30 C 0.17567(19) 0.3921(3) 0.9176(2)
H38 H 0.17860 0.36220 0.88480
C31 C 0.2533(2) 0.4455(4) 0.8958(3)
C32 C 0.0937(2) 0.6666(3) 0.9366(3)
C33 C 0.2349(2) 0.3691(4) 1.1750(4)
C34 C 0.0997(2) 0.3262(3) 0.9303(3)
C35 C 0.2447(3) 0.4166(5) 0.8307(3)
H39 H 0.23190 0.37040 0.83150
H40 H 0.27410 0.41510 0.81360
H41 H 0.22290 0.44630 0.80580
C36 C 0.2302(3) 0.7599(3) 1.0956(3)
H42 H 0.23930 0.76810 1.05540
H43 H 0.25170 0.78370 1.12580
H44 H 0.19880 0.77700 1.09690
C37 C 0.2191(4) 0.6684(4) 1.1723(3)
H45 H 0.23990 0.69460 1.20170
H46 H 0.22230 0.61940 1.18160
H47 H 0.18710 0.68260 1.17410
C38 C 0.2731(5) 0.5153(6) 0.8988(6)
H48 H 0.29980 0.51680 0.87630
H49 H 0.28290 0.52760 0.94090
H50 H 0.24960 0.54790 0.88110
C39 C 0.0918(5) 0.2861(5) 0.9837(4)
H51 H 0.08510 0.31710 1.01590
H52 H 0.11950 0.25920 0.99750
H53 H 0.06550 0.25520 0.97330
C40 C 0.2240(4) 0.3428(6) 1.2351(5)
H54 H 0.22090 0.38150 1.26210
H55 H 0.24910 0.31290 1.25290
H56 H 0.19500 0.31690 1.22930
C41 C 0.0979(3) 0.7447(3) 0.9344(4)
H57 H 0.09840 0.76340 0.97510
H58 H 0.07140 0.76350 0.90820
H59 H 0.12660 0.75700 0.91840
C42 C 0.0899(4) 0.4884(6) 1.2499(4)
H60 H 0.11870 0.50690 1.27110
H61 H 0.09070 0.43830 1.25170
H62 H 0.06360 0.50530 1.26910
C43 C 0.2819(2) 0.6553(5) 1.1017(5)
H63 H 0.28870 0.66530 1.06080
H64 H 0.28370 0.60580 1.10870
H65 H 0.30460 0.67860 1.13090
C44 C 0.0924(5) 0.6342(5) 0.8773(3)
H66 H 0.06850 0.65610 0.84880
H67 H 0.08540 0.58540 0.88050
H68 H 0.12260 0.63960 0.86280
C45 C 0.0808(3) 0.5903(4) 1.1780(4)
H69 H 0.10910 0.61090 1.19860
H70 H 0.05420 0.60570 1.19730
H71 H 0.07660 0.60420 1.13560
C46 C 0.1091(3) 0.2820(5) 0.8778(5)
H72 H 0.11390 0.31120 0.84350
H73 H 0.08270 0.25170 0.86640
H74 H 0.13690 0.25440 0.88950
C47 C 0.0537(3) 0.3644(6) 0.9109(7)
H75 H 0.05640 0.39130 0.87460
H76 H 0.04700 0.39500 0.94340
H77 H 0.02850 0.33110 0.90250
C48 C 0.0390(3) 0.4824(5) 1.1508(5)
H78 H 0.04020 0.43240 1.15290
H79 H 0.03460 0.49680 1.10850
H80 H 0.01310 0.49910 1.17080
C49 C 0.2401(6) 0.3105(6) 1.1347(6)
H81 H 0.21130 0.28420 1.12900
H82 H 0.26540 0.28120 1.15270
H83 H 0.24710 0.32740 1.09560
C50 C 0.0460(3) 0.6499(6) 0.9601(5)
H84 H 0.04520 0.67130 0.99960
H85 H 0.04260 0.60020 0.96380
H86 H 0.02050 0.66790 0.93160
O1A O 0.46062(11) 0.58288(17) 0.28061(13)
O2A O 0.54045(11) 0.51066(16) 0.32855(15)
O3A O 0.46098(11) 0.43885(16) 0.28073(15)
C4A C 0.53783(15) 0.4716(2) 0.3746(2)
C5A C 0.57821(18) 0.4844(3) 0.4272(2)
C6A C 0.46753(16) 0.4067(2) 0.3316(2)
C7A C 0.43004(19) 0.3512(3) 0.3387(2)
C8A C 0.46482(15) 0.6488(2) 0.27750(18)
C9A C 0.50370(16) 0.4209(2) 0.3780(2)
H8A H 0.50520 0.39470 0.41390
C10A C 0.42697(18) 0.6886(3) 0.3065(2)
C11A C 0.5789(3) 0.5611(4) 0.4414(3)
H9A H 0.58320 0.58700 0.40510
H10A H 0.60440 0.57100 0.47320
H11A H 0.54950 0.57430 0.45510
C12A C 0.5719(2) 0.4463(4) 0.4865(3)
H12A H 0.57150 0.39680 0.47930
H13A H 0.54260 0.46030 0.50010
H14A H 0.59760 0.45770 0.51760
C13A C 0.4331(3) 0.7668(3) 0.3069(4)
H15A H 0.40800 0.78810 0.32550
H16A H 0.43220 0.78330 0.26540
H17A H 0.46290 0.77870 0.32990
C14A C 0.4404(3) 0.3056(4) 0.3955(4)
H18A H 0.44430 0.33450 0.43160
H19A H 0.46880 0.27950 0.39320
H20A H 0.41450 0.27390 0.39770
C15A C 0.4223(4) 0.3088(5) 0.2830(4)
H21A H 0.41540 0.33870 0.24780
H22A H 0.39620 0.27770 0.28540
H23A H 0.45020 0.28200 0.27900
C16A C 0.6234(2) 0.4625(5) 0.4038(4)
H24A H 0.62250 0.41320 0.39550
H25A H 0.64970 0.47270 0.43430
H26A H 0.62680 0.48750 0.36670
C17A C 0.4275(4) 0.6641(5) 0.3716(4)
H27A H 0.40370 0.68870 0.39040
H28A H 0.45800 0.67310 0.39420
H29A H 0.42110 0.61490 0.37190
C18A C 0.3799(2) 0.6705(5) 0.2693(5)
H30A H 0.35500 0.69460 0.28610
H31A H 0.37470 0.62100 0.27110
H32A H 0.38030 0.68440 0.22730
C19A C 0.3848(3) 0.3898(5) 0.3449(6)
H33A H 0.38890 0.41800 0.38140
H34A H 0.35980 0.35680 0.34760
H35A H 0.37680 0.41920 0.30960
#END

data_CSD_CIF_FECWEP01
_audit_creation_date 2008-05-23
_audit_creation_method CSD-ConQuest-V1
_database_code_CSD FECWEP01
_database_code_depnum_ccdc_archive 'CCDC 650381'
_chemical_formula_sum 'C33 H57 Co1 O6'
_chemical_formula_moiety
;
C33 H57 Co1 O6
;
_journal_coden_Cambridge 29
_journal_volume 634
_journal_year 2008
_journal_page_first 247
_journal_name_full 'Z.Anorg.Allg.Chem. '
loop_
_publ_author_name
"M.A.K.Ahmed"
"H.Fjellvag"
"A.Kjekshus"
"P.D.C.Dietzel"
_chemical_name_systematic
;
tris(2,2,6,6-Tetramethylheptane-3,5-dionato)-cobalt(iii)
;
_chemical_name_common
;
tris(Dipivaloylmethanato)-cobalt(iii)
;
_cell_volume  10946.854
_exptl_crystal_colour 'green'
_exptl_crystal_density_diffrn 1.108
_exptl_special_details
;
magnetic properties
low temperature polymorph
phase transition between 293 K and 100 K
;
_exptl_crystal_description 'hexagonal rod'
_diffrn_ambient_temperature 100
#These two values have been output from a single CSD field.
_refine_ls_R_factor_gt 0.0691
_refine_ls_wR_factor_gt 0.0691
_symmetry_cell_setting monoclinic
_symmetry_space_group_name_H-M 'C 2/c'
_symmetry_Int_Tables_number 15
loop_
_symmetry_equiv_pos_site_id
_symmetry_equiv_pos_as_xyz
1 x,y,z
2 1/2+x,1/2+y,z
3 -x,y,1/2-z
4 1/2-x,1/2+y,1/2-z
5 -x,-y,-z
6 -1/2-x,-1/2-y,-z
7 x,-y,-1/2+z
8 -1/2+x,-1/2-y,-1/2+z
_cell_length_a 28.007(12)
_cell_length_b 18.482(8)
_cell_length_c 21.356(9)
_cell_angle_alpha 90
_cell_angle_beta 97.999(5)
_cell_angle_gamma 90
_cell_formula_units_Z 12
loop_
_atom_type_symbol
_atom_type_radius_bond
C 0.68
H 0.23
Co 1.33
O 0.68
loop_
_atom_site_label
_atom_site_type_symbol
_atom_site_fract_x
_atom_site_fract_y
_atom_site_fract_z
C1 C 0.5804(3) 1.1016(4) 0.1758(4)
H1 H 0.60980 1.12250 0.19910
H2 H 0.55230 1.11900 0.19400
H3 H 0.57760 1.11620 0.13130
C2 C 0.5828(3) 1.0195(4) 0.1804(3)
C3 C 0.6234(3) 0.9917(4) 0.1457(4)
C4 C 0.6613(3) 0.9483(4) 0.1756(4)
H4 H 0.66250 0.93870 0.21940
C5 C 0.6973(3) 0.9186(4) 0.1441(4)
C6 C 0.7371(3) 0.8709(4) 0.1790(4)
C7 C 0.7839(3) 0.9114(6) 0.1800(5)
H5 H 0.79080 0.91800 0.13670
H6 H 0.81010 0.88380 0.20430
H7 H 0.78130 0.95890 0.19980
C8 C 0.5362(3) 0.9864(5) 0.1481(5)
H8 H 0.53240 0.99730 0.10280
H9 H 0.50900 1.00670 0.16650
H10 H 0.53710 0.93390 0.15430
C9 C 0.5895(4) 0.9980(5) 0.2514(4)
H11 H 0.59270 0.94530 0.25520
H12 H 0.56150 1.01410 0.27040
H13 H 0.61870 1.02110 0.27320
C10 C 0.7373(4) 0.8003(5) 0.1426(5)
H14 H 0.70490 0.77910 0.13740
H15 H 0.76020 0.76660 0.16590
H16 H 0.74680 0.80970 0.10090
C11 C 0.7300(3) 0.8543(5) 0.2475(4)
H17 H 0.72870 0.89980 0.27090
H18 H 0.75700 0.82500 0.26760
H19 H 0.69980 0.82770 0.24780
C12 C 0.7783(3) 1.0159(5) -0.0912(4)
H20 H 0.75670 1.05250 -0.11290
H21 H 0.80850 1.01500 -0.10950
H22 H 0.78510 1.02800 -0.04610
C13 C 0.7547(3) 0.9431(4) -0.0988(4)
C14 C 0.7099(3) 0.9398(4) -0.0648(3)
C15 C 0.6749(3) 0.8876(4) -0.0786(3)
H23 H 0.67850 0.85520 -0.11220
C16 C 0.6345(2) 0.8780(3) -0.0478(3)
C17 C 0.5970(3) 0.8201(4) -0.0673(3)
C18 C 0.5855(4) 0.7817(5) -0.0115(4)
H24 H 0.55950 0.74690 -0.02410
H25 H 0.57510 0.81650 0.01850
H26 H 0.61410 0.75580 0.00860
C19 C 0.7906(3) 0.8858(5) -0.0647(4)
H27 H 0.81990 0.88440 -0.08510
H28 H 0.77540 0.83800 -0.06760
H29 H 0.79910 0.89920 -0.02010
C20 C 0.7430(3) 0.9222(4) -0.1687(3)
H30 H 0.71770 0.95400 -0.18950
H31 H 0.73190 0.87190 -0.17210
H32 H 0.77200 0.92730 -0.18920
C21 C 0.6099(4) 0.7688(5) -0.1167(5)
H33 H 0.63970 0.74320 -0.10050
H34 H 0.61470 0.79590 -0.15480
H35 H 0.58380 0.73360 -0.12720
C22 C 0.5514(4) 0.8595(6) -0.0974(6)
H36 H 0.52610 0.82400 -0.11110
H37 H 0.55850 0.88740 -0.13400
H38 H 0.54030 0.89220 -0.06630
C23 C 0.5823(3) 1.1255(4) -0.1274(4)
H39 H 0.61050 1.13500 -0.14850
H40 H 0.55330 1.14440 -0.15330
H41 H 0.57890 1.07320 -0.12160
C24 C 0.5886(3) 1.1617(4) -0.0646(4)
C25 C 0.6289(3) 1.1248(4) -0.0209(3)
C26 C 0.6627(3) 1.1647(4) 0.0205(3)
H42 H 0.66150 1.21600 0.01790
C27 C 0.6978(2) 1.1331(4) 0.0650(3)
C28 C 0.7348(3) 1.1789(4) 0.1074(3)
C29 C 0.7850(3) 1.1518(4) 0.0985(4)
H43 H 0.78800 1.10050 0.11010
H44 H 0.80950 1.17980 0.12550
H45 H 0.78970 1.15770 0.05410
C30 C 0.5409(3) 1.1478(5) -0.0359(4)
H46 H 0.53480 1.09560 -0.03490
H47 H 0.51400 1.17180 -0.06200
H48 H 0.54420 1.16720 0.00720
C31 C 0.5940(3) 1.2417(4) -0.0711(4)
H49 H 0.59490 1.26460 -0.02960
H50 H 0.56670 1.26080 -0.10000
H51 H 0.62410 1.25220 -0.08800
C32 C 0.7255(3) 1.1662(4) 0.1757(3)
H52 H 0.69380 1.18540 0.18110
H53 H 0.75040 1.19100 0.20480
H54 H 0.72650 1.11420 0.18470
C33 C 0.7317(3) 1.2607(4) 0.0939(3)
H55 H 0.73540 1.26950 0.04960
H56 H 0.75740 1.28570 0.12140
H57 H 0.70030 1.27900 0.10210
C34 C 0.9213(3) 0.0722(4) 0.0560(3)
H58 H 0.95250 0.08660 0.04410
H59 H 0.91540 0.09910 0.09370
H60 H 0.89570 0.08290 0.02110
C35 C 0.9217(2) -0.0088(3) 0.0701(3)
C36 C 0.9620(2) -0.0244(3) 0.1249(3)
C37 C 0.9974(2) -0.0763(3) 0.1226(3)
H61 H 0.99670 -0.10320 0.08460
C38 C 1.0342(2) -0.0919(3) 0.1719(3)
C39 C 1.0738(2) -0.1469(4) 0.1650(3)
C40 C 1.1196(3) -0.1034(4) 0.1579(4)
H62 H 1.12900 -0.07440 0.19600
H63 H 1.11320 -0.07130 0.12110
H64 H 1.14580 -0.13670 0.15190
C41 C 0.9274(3) -0.0499(4) 0.0099(3)
H65 H 0.90090 -0.03720 -0.02320
H66 H 0.92670 -0.10200 0.01810
H67 H 0.95820 -0.03700 -0.00400
C42 C 0.8746(2) -0.0302(4) 0.0929(3)
H68 H 0.84770 -0.02190 0.05910
H69 H 0.86990 -0.00090 0.12980
H70 H 0.87580 -0.08150 0.10460
C43 C 1.0624(3) -0.1957(4) 0.1062(3)
H71 H 1.08910 -0.22960 0.10430
H72 H 1.05810 -0.16570 0.06800
H73 H 1.03270 -0.22290 0.10890
C44 C 1.0827(3) -0.1941(4) 0.2239(3)
H74 H 1.09020 -0.16330 0.26130
H75 H 1.10980 -0.22670 0.22070
H76 H 1.05370 -0.22260 0.22760
C45 C 1.0762(3) 0.1629(4) 0.1270(4)
H77 H 1.04600 0.17610 0.10060
H78 H 1.07980 0.11010 0.12740
H79 H 1.10340 0.18490 0.10970
C46 C 1.0753(3) 0.1899(4) 0.1943(3)
C47 C 1.0361(2) 0.1476(4) 0.2227(3)
C48 C 1.00000 0.1835(5) 0.25000
H80 H 1.00000 0.23490 0.25000
C49 C 1.1235(3) 0.1711(5) 0.2354(4)
H81 H 1.15000 0.19630 0.21900
H82 H 1.12890 0.11870 0.23430
H83 H 1.12230 0.18630 0.27910
C50 C 1.0692(3) 0.2707(4) 0.1929(4)
H84 H 1.03870 0.28320 0.16670
H85 H 1.09600 0.29310 0.17520
H86 H 1.06870 0.28860 0.23600
Co1 Co 0.66380(3) 0.99425(5) 0.03338(4)
Co2 Co 1.00000 0.01173(6) 0.25000
O1 O 0.61830(16) 1.0106(2) 0.0889(2)
O2 O 0.70049(16) 0.9279(2) 0.0858(2)
O3 O 0.70997(15) 0.9872(2) -0.0219(2)
O4 O 0.62527(15) 0.9178(2) -0.0026(2)
O5 O 0.62720(15) 1.0558(2) -0.02303(19)
O6 O 0.70220(16) 1.0661(2) 0.07584(19)
O7 O 0.95913(15) 0.0164(2) 0.17261(19)
O8 O 1.04019(15) -0.0599(2) 0.22477(19)
O9 O 1.04037(15) 0.0796(2) 0.21885(18)
C34B C 1.0787(3) 0.0722(4) 0.4440(3)
H58B H 1.04750 0.08660 0.45590
H59B H 1.08460 0.09910 0.40630
H60B H 1.10430 0.08290 0.47890
C35B C 1.0783(2) -0.0088(3) 0.4299(3)
C36B C 1.0380(2) -0.0244(3) 0.3751(3)
C37B C 1.0026(2) -0.0763(3) 0.3774(3)
H61B H 1.00330 -0.10320 0.41540
C38B C 0.9658(2) -0.0919(3) 0.3281(3)
C39B C 0.9262(2) -0.1469(4) 0.3350(3)
C40B C 0.8804(3) -0.1034(4) 0.3421(4)
H62B H 0.87100 -0.07440 0.30400
H63B H 0.88680 -0.07130 0.37890
H64B H 0.85420 -0.13670 0.34810
C41B C 1.0726(3) -0.0499(4) 0.4901(3)
H65B H 1.09910 -0.03720 0.52320
H66B H 1.07330 -0.10200 0.48190
H67B H 1.04180 -0.03700 0.50400
C42B C 1.1254(2) -0.0302(4) 0.4071(3)
H68B H 1.15230 -0.02190 0.44090
H69B H 1.13010 -0.00090 0.37020
H70B H 1.12420 -0.08150 0.39540
C43B C 0.9376(3) -0.1957(4) 0.3938(3)
H71B H 0.91090 -0.22960 0.39570
H72B H 0.94190 -0.16570 0.43200
H73B H 0.96730 -0.22290 0.39110
C44B C 0.9173(3) -0.1941(4) 0.2761(3)
H74B H 0.90980 -0.16330 0.23870
H75B H 0.89020 -0.22670 0.27930
H76B H 0.94630 -0.22260 0.27240
C45B C 0.9238(3) 0.1629(4) 0.3730(4)
H77B H 0.95400 0.17610 0.39940
H78B H 0.92020 0.11010 0.37260
H79B H 0.89660 0.18490 0.39030
C46B C 0.9247(3) 0.1899(4) 0.3057(3)
C47B C 0.9639(2) 0.1476(4) 0.2773(3)
C49B C 0.8765(3) 0.1711(5) 0.2646(4)
H81B H 0.85000 0.19630 0.28100
H82B H 0.87110 0.11870 0.26570
H83B H 0.87770 0.18630 0.22090
C50B C 0.9308(3) 0.2707(4) 0.3071(4)
H84B H 0.96130 0.28320 0.33330
H85B H 0.90400 0.29310 0.32480
H86B H 0.93130 0.28860 0.26400
O7B O 1.04087(15) 0.0164(2) 0.32739(19)
O8B O 0.95981(15) -0.0599(2) 0.27523(19)
O9B O 0.95963(15) 0.0796(2) 0.28115(18)
#END

data_CSD_CIF_FECWEP02
_audit_creation_date 2008-05-23
_audit_creation_method CSD-ConQuest-V1
_database_code_CSD FECWEP02
_database_code_depnum_ccdc_archive 'CCDC 650382'
_chemical_formula_sum 'C33 H57 Co1 O6'
_chemical_formula_moiety
;
C33 H57 Co1 O6
;
_journal_coden_Cambridge 29
_journal_volume 634
_journal_year 2008
_journal_page_first 247
_journal_name_full 'Z.Anorg.Allg.Chem. '
loop_
_publ_author_name
"M.A.K.Ahmed"
"H.Fjellvag"
"A.Kjekshus"
"P.D.C.Dietzel"
_chemical_name_systematic
;
tris(2,2,6,6-Tetramethylheptane-3,5-dionato)-cobalt(iii)
;
_chemical_name_common
;
tris(Dipivaloylmethanato)-cobalt(iii)
;
_cell_volume   5765.174
_exptl_crystal_colour 'green'
_exptl_crystal_density_diffrn 1.052
_exptl_special_details
;
magnetic properties
room temperature polymorph
phase transition between 293 K and 100 K
;
_exptl_crystal_description 'hexagonal rod'
_exptl_crystal_preparation 'ethanol'
_diffrn_ambient_temperature 295
_refine_special_details
;
Two t-butyl groups are disordered over two sites with occupancies 0.54:0.46 
and 0.69:0.31.
;
#These two values have been output from a single CSD field.
_refine_ls_R_factor_gt 0.05
_refine_ls_wR_factor_gt 0.05
_symmetry_cell_setting hexagonal
_symmetry_space_group_name_H-M 'P -3 c 1'
_symmetry_Int_Tables_number 165
loop_
_symmetry_equiv_pos_site_id
_symmetry_equiv_pos_as_xyz
1 x,y,z
2 -y,x-y,z
3 -x+y,-x,z
4 y,x,1/2-z
5 x-y,-y,1/2-z
6 -x,-x+y,1/2-z
7 -x,-y,-z
8 y,-x+y,-z
9 x-y,x,-z
10 -y,-x,-1/2+z
11 -x+y,y,-1/2+z
12 x,x-y,-1/2+z
_cell_length_a 18.810(1)
_cell_length_b 18.810(1)
_cell_length_c 18.815(2)
_cell_angle_alpha 90
_cell_angle_beta 90
_cell_angle_gamma 120
_cell_formula_units_Z 6
loop_
_atom_type_symbol
_atom_type_radius_bond
C 0.68
H 0.23
Co 1.33
O 0.68
loop_
_atom_site_label
_atom_site_type_symbol
_atom_site_fract_x
_atom_site_fract_y
_atom_site_fract_z
C1 C 0.2228(3) 0.1288(3) 0.3581(2)
C2 C 0.1559(2) 0.1112(2) 0.30238(19)
C3 C 0.1670(3) 0.1670(3) 0.25000
H1 H 0.21640 0.21640 0.25000
C4 C 0.1850(8) 0.1380(16) 0.4275(6)
H2 H 0.21000 0.12690 0.46720
H3 H 0.12710 0.09980 0.42750
H4 H 0.19440 0.19290 0.43100
C5 C 0.2358(11) 0.0565(9) 0.3623(12)
H5 H 0.23190 0.03430 0.31550
H6 H 0.19460 0.01520 0.39230
H7 H 0.28920 0.07360 0.38160
C6 C 0.3019(7) 0.2032(10) 0.3417(9)
H8 H 0.29450 0.25010 0.34110
H9 H 0.32100 0.19710 0.29610
H10 H 0.34150 0.21060 0.37740
C7 C 0.5444(2) 0.4326(2) 0.3756(2)
C8 C 0.5593(2) 0.3843(2) 0.43308(19)
C9 C 0.5031(2) 0.3418(2) 0.48733(18)
H11 H 0.45560 0.34540 0.48880
C10 C 0.5124(2) 0.2945(2) 0.53923(18)
C11 C 0.4490(2) 0.2505(2) 0.5971(2)
C12 C 0.6215(3) 0.5180(3) 0.3704(3)
H12 H 0.66820 0.51220 0.35950
H13 H 0.63030 0.54610 0.41490
H14 H 0.61410 0.54900 0.33350
C13 C 0.5324(4) 0.3881(3) 0.3054(2)
H15 H 0.52510 0.41860 0.26810
H16 H 0.48470 0.33440 0.30840
H17 H 0.57980 0.38320 0.29550
C14 C 0.4703(3) 0.4430(3) 0.3902(2)
H18 H 0.47880 0.47280 0.43370
H19 H 0.42190 0.39000 0.39420
H20 H 0.46370 0.47280 0.35180
C15 C 0.3676(6) 0.2460(12) 0.5849(7)
H21 H 0.34390 0.21730 0.54140
H22 H 0.37580 0.30060 0.58200
H23 H 0.33130 0.21740 0.62370
C16 C 0.4335(9) 0.1638(6) 0.6064(10)
H24 H 0.40980 0.14350 0.65240
H25 H 0.48450 0.16400 0.60250
H26 H 0.39640 0.12910 0.57020
C17 C 0.4883(8) 0.2987(10) 0.6652(5)
H27 H 0.44980 0.27590 0.70370
H28 H 0.50350 0.35510 0.65850
H29 H 0.53640 0.29530 0.67620
C18? C 0.1952(11) 0.0667(11) 0.4162(10)
H30? H 0.23990 0.08090 0.44840
H31? H 0.17770 0.01350 0.39620
H32? H 0.15040 0.06580 0.44130
C19? C 0.2902(16) 0.122(3) 0.3204(10)
H33? H 0.32720 0.17330 0.29810
H34? H 0.26640 0.07960 0.28490
H35? H 0.31980 0.10820 0.35420
C20? C 0.2506(19) 0.2127(11) 0.3893(12)
H36? H 0.28220 0.21980 0.43150
H37? H 0.20340 0.21740 0.40110
H38? H 0.28370 0.25420 0.35530
C21? C 0.411(4) 0.300(3) 0.618(3)
H39? H 0.36860 0.29060 0.58520
H40? H 0.45200 0.35670 0.61880
H41? H 0.38780 0.28330 0.66510
C22? C 0.4822(14) 0.236(3) 0.6630(14)
H42? H 0.44920 0.17950 0.67680
H43? H 0.48130 0.27050 0.70010
H44? H 0.53760 0.24830 0.65500
C23? C 0.395(3) 0.1702(15) 0.5614(16)
H45? H 0.35250 0.13430 0.59350
H46? H 0.42730 0.14570 0.54780
H47? H 0.37090 0.17900 0.51980
Co1 Co 0.00000 0.00000 0.25000
Co2 Co 0.66670 0.33330 0.48471(4)
O1 O 0.09164(14) 0.04151(14) 0.31026(11)
O2 O 0.62699(14) 0.38524(13) 0.42529(13)
O3 O 0.57521(14) 0.28584(13) 0.54426(12)
C1C C 0.1288(3) 0.2228(3) 0.1419(2)
C1A C -0.1288(3) 0.0940(3) 0.3581(2)
C1E C -0.2228(3) -0.0940(3) 0.1419(2)
C1B C -0.0940(3) -0.2228(3) 0.3581(2)
C1D C 0.0940(3) -0.1288(3) 0.1419(2)
C2C C 0.1112(2) 0.1559(2) 0.19762(19)
C2A C -0.1112(2) 0.0447(2) 0.30238(19)
C2E C -0.1559(2) -0.0447(2) 0.19762(19)
C2B C -0.0447(2) -0.1559(2) 0.30238(19)
C2D C 0.0447(2) -0.1112(2) 0.19762(19)
C3A C -0.1670(3) 0.0000(3) 0.25000
C3B C 0.0000(3) -0.1670(3) 0.25000
H1B H 0.00000 -0.21640 0.25000
H1A H -0.21640 0.00000 0.25000
C4C C 0.1380(8) 0.1850(16) 0.0725(6)
C4A C -0.1380(8) 0.0470(16) 0.4275(6)
C4E C -0.1850(8) -0.0470(16) 0.0725(6)
C4B C -0.0470(8) -0.1850(16) 0.4275(6)
C4D C 0.0470(8) -0.1380(16) 0.0725(6)
H2C H 0.12690 0.21000 0.03280
H2A H -0.12690 0.08310 0.46720
H2E H -0.21000 -0.08310 0.03280
H2B H -0.08310 -0.21000 0.46720
H2D H 0.08310 -0.12690 0.03280
H3C H 0.09980 0.12710 0.07250
H3A H -0.09980 0.02730 0.42750
H3E H -0.12710 -0.02730 0.07250
H3B H -0.02730 -0.12710 0.42750
H3D H 0.02730 -0.09980 0.07250
H4C H 0.19290 0.19440 0.06900
H4A H -0.19290 0.00150 0.43100
H4E H -0.19440 -0.00150 0.06900
H4B H -0.00150 -0.19440 0.43100
H4D H 0.00150 -0.19290 0.06900
C5C C 0.0565(11) 0.2358(9) 0.1377(12)
C5A C -0.0565(11) 0.1793(9) 0.3623(12)
C5E C -0.2358(11) -0.1793(9) 0.1377(12)
C5B C -0.1793(11) -0.2358(9) 0.3623(12)
C5D C 0.1793(11) -0.0565(9) 0.1377(12)
H5C H 0.03430 0.23190 0.18450
H5A H -0.03430 0.19760 0.31550
H5E H -0.23190 -0.19760 0.18450
H5B H -0.19760 -0.23190 0.31550
H5D H 0.19760 -0.03430 0.18450
H6C H 0.01520 0.19460 0.10770
H6A H -0.01520 0.17940 0.39230
H6E H -0.19460 -0.17940 0.10770
H6B H -0.17940 -0.19460 0.39230
H6D H 0.17940 -0.01520 0.10770
H7C H 0.07360 0.28920 0.11840
H7A H -0.07360 0.21560 0.38160
H7E H -0.28920 -0.21560 0.11840
H7B H -0.21560 -0.28920 0.38160
H7D H 0.21560 -0.07360 0.11840
C6C C 0.2032(7) 0.3019(10) 0.1583(9)
C6A C -0.2032(7) 0.0987(10) 0.3417(9)
C6E C -0.3019(7) -0.0987(10) 0.1583(9)
C6B C -0.0987(7) -0.3019(10) 0.3417(9)
C6D C 0.0987(7) -0.2032(10) 0.1583(9)
H8C H 0.25010 0.29450 0.15890
H8A H -0.25010 0.04440 0.34110
H8E H -0.29450 -0.04440 0.15890
H8B H -0.04440 -0.29450 0.34110
H8D H 0.04440 -0.25010 0.15890
H9C H 0.19710 0.32100 0.20390
H9A H -0.19710 0.12390 0.29610
H9E H -0.32100 -0.12390 0.20390
H9B H -0.12390 -0.32100 0.29610
H9D H 0.12390 -0.19710 0.20390
H10C H 0.21060 0.34150 0.12260
H10A H -0.21060 0.13090 0.37740
H10E H -0.34150 -0.13090 0.12260
H10B H -0.13090 -0.34150 0.37740
H10D H 0.13090 -0.21060 0.12260
C7A C 0.5674(2) 0.1118(2) 0.3756(2)
C7B C 0.8882(2) 0.4556(2) 0.3756(2)
C8A C 0.6157(2) 0.1750(2) 0.43308(19)
C8B C 0.8250(2) 0.4407(2) 0.43308(19)
C9A C 0.6582(2) 0.1613(2) 0.48733(18)
C9B C 0.8387(2) 0.4969(2) 0.48733(18)
H11A H 0.65460 0.11020 0.48880
H11B H 0.88980 0.54440 0.48880
C10A C 0.7055(2) 0.2179(2) 0.53923(18)
C10B C 0.7821(2) 0.4876(2) 0.53923(18)
C11A C 0.7495(2) 0.1985(2) 0.5971(2)
C11B C 0.8015(2) 0.5510(2) 0.5971(2)
C12A C 0.4820(3) 0.1035(3) 0.3704(3)
C12B C 0.8965(3) 0.3785(3) 0.3704(3)
H12A H 0.48780 0.15600 0.35950
H12B H 0.84400 0.33180 0.35950
H13A H 0.45390 0.08420 0.41490
H13B H 0.91580 0.36970 0.41490
H14A H 0.45100 0.06510 0.33350
H14B H 0.93490 0.38590 0.33350
C13A C 0.6119(4) 0.1443(3) 0.3054(2)
C13B C 0.8557(4) 0.4676(3) 0.3054(2)
H15A H 0.58140 0.10650 0.26810
H15B H 0.89350 0.47490 0.26810
H16A H 0.66560 0.15030 0.30840
H16B H 0.84970 0.51530 0.30840
H17A H 0.61680 0.19660 0.29550
H17B H 0.80340 0.42020 0.29550
C14A C 0.5570(3) 0.0273(3) 0.3902(2)
C14B C 0.9727(3) 0.5297(3) 0.3902(2)
H18A H 0.52720 0.00600 0.43370
H18B H 0.99400 0.52120 0.43370
H19A H 0.61000 0.03190 0.39420
H19B H 0.96810 0.57810 0.39420
H20A H 0.52720 -0.00910 0.35180
H20B H 1.00910 0.53630 0.35180
C15A C 0.7540(6) 0.1216(12) 0.5849(7)
C15B C 0.8784(6) 0.6324(12) 0.5849(7)
H21A H 0.78270 0.12660 0.54140
H21B H 0.87340 0.65610 0.54140
H22A H 0.69940 0.07520 0.58200
H22B H 0.92480 0.62420 0.58200
H23A H 0.78260 0.11390 0.62370
H23B H 0.88610 0.66870 0.62370
C16A C 0.8362(9) 0.2697(6) 0.6064(10)
C16B C 0.7303(9) 0.5665(6) 0.6064(10)
H24A H 0.85650 0.26630 0.65240
H24B H 0.73370 0.59020 0.65240
H25A H 0.83600 0.32050 0.60250
H25B H 0.67950 0.51550 0.60250
H26A H 0.87090 0.26730 0.57020
H26B H 0.73270 0.60360 0.57020
C17A C 0.7013(8) 0.1896(10) 0.6652(5)
C17B C 0.8104(8) 0.5117(10) 0.6652(5)
H27A H 0.72410 0.17390 0.70370
H27B H 0.82610 0.55020 0.70370
H28A H 0.64490 0.14840 0.65850
H28B H 0.85160 0.49650 0.65850
H29A H 0.70470 0.24110 0.67620
H29B H 0.75890 0.46360 0.67620
O1C O 0.04151(14) 0.09164(14) 0.18974(11)
O1A O -0.04151(14) 0.05013(14) 0.31026(11)
O1E O -0.09164(14) -0.05013(14) 0.18974(11)
O1B O -0.05013(14) -0.09164(14) 0.31026(11)
O1D O 0.05013(14) -0.04151(14) 0.18974(11)
O2A O 0.61476(14) 0.24175(13) 0.42529(13)
O2B O 0.75825(14) 0.37301(13) 0.42529(13)
O3A O 0.71416(14) 0.28937(13) 0.54426(12)
O3B O 0.71063(14) 0.42479(13) 0.54426(12)
#END

data_CSD_CIF_FECWEP03
_audit_creation_date 2008-05-23
_audit_creation_method CSD-ConQuest-V1
_database_code_CSD FECWEP03
_database_code_depnum_ccdc_archive 'CCDC 650383'
_chemical_formula_sum 'C33 H57 Co1 O6'
_chemical_formula_moiety
;
C33 H57 Co1 O6
;
_journal_coden_Cambridge 29
_journal_volume 634
_journal_year 2008
_journal_page_first 247
_journal_name_full 'Z.Anorg.Allg.Chem. '
loop_
_publ_author_name
"M.A.K.Ahmed"
"H.Fjellvag"
"A.Kjekshus"
"P.D.C.Dietzel"
_chemical_name_systematic
;
tris(2,2,6,6-Tetramethylheptane-3,5-dionato)-cobalt(iii)
;
_chemical_name_common
;
tris(Dipivaloylmethanato)-cobalt(iii)
;
_cell_volume   3915.913
_exptl_crystal_density_diffrn 1.033
_exptl_special_details
;
magnetic properties
meta-stable polymorph

;
_diffrn_ambient_temperature 100
_refine_special_details
;
The structure is disordered by symmetry.

;
#These two values have been output from a single CSD field.
_refine_ls_R_factor_gt 0.0594
_refine_ls_wR_factor_gt 0.0594
_symmetry_cell_setting orthorhombic
_symmetry_space_group_name_H-M 'P n m a'
_symmetry_Int_Tables_number 62
loop_
_symmetry_equiv_pos_site_id
_symmetry_equiv_pos_as_xyz
1 x,y,z
2 1/2-x,-y,1/2+z
3 1/2+x,1/2-y,1/2-z
4 -x,1/2+y,-z
5 -x,-y,-z
6 -1/2+x,y,-1/2-z
7 -1/2-x,-1/2+y,-1/2+z
8 x,-1/2-y,z
_cell_length_a 19.2394(15)
_cell_length_b 18.8795(15)
_cell_length_c 10.7808(9)
_cell_angle_alpha 90
_cell_angle_beta 90
_cell_angle_gamma 90
_cell_formula_units_Z 4
loop_
_atom_type_symbol
_atom_type_radius_bond
C 0.68
H 0.23
Co 1.33
O 0.68
loop_
_atom_site_label
_atom_site_type_symbol
_atom_site_fract_x
_atom_site_fract_y
_atom_site_fract_z
C1 C 0.1769(9) 0.3800(12) 0.491(2)
C2 C 0.129(1) 0.4195(10) 0.4153(16)
H1 H 0.13160 0.46980 0.41510
C3 C 0.0788(9) 0.3863(10) 0.3422(16)
C4 C 0.0843(10) 0.3433(10) 0.240(2)
C5 C 0.1374(10) 0.3307(9) 0.1612(18)
H2 H 0.14040 0.35700 0.08640
C6 C 0.1883(8) 0.2793(9) 0.1874(14)
C7 C 0.1718(10) 0.3480(12) 0.577(2)
C8 C 0.1196(11) 0.3337(10) 0.6579(16)
H3 H 0.11790 0.36000 0.73290
C9 C 0.0655(7) 0.2805(7) 0.6369(14)
C10 C 0.2316(6) 0.4131(6) 0.5910(13)
C11 C 0.2973(13) 0.384(2) 0.583(4)
H4 H 0.30740 0.37180 0.49660
H5 H 0.29950 0.34110 0.63430
H6 H 0.33170 0.41830 0.61290
C12? C 0.270(3) 0.384(3) 0.700(5)
H7? H 0.25020 0.40300 0.77700
H8? H 0.31940 0.39840 0.69510
H9? H 0.26730 0.33240 0.70070
C13 C 0.216(2) 0.429(2) 0.712(2)
H10 H 0.25830 0.42790 0.76200
H11 H 0.18280 0.39380 0.74400
H12 H 0.19490 0.47620 0.71610
C14? C 0.209(2) 0.486(3) 0.623(7)
H13? H 0.16840 0.49910 0.57170
H14? H 0.24660 0.51970 0.60680
H15? H 0.19570 0.48840 0.71070
C15 C 0.226(2) 0.472(2) 0.518(4)
H16 H 0.17900 0.49170 0.52630
H17 H 0.23370 0.45850 0.43080
H18 H 0.26030 0.50700 0.54280
C16? C 0.284(3) 0.419(4) 0.488(4)
H19? H 0.29740 0.46920 0.47830
H20? H 0.26310 0.40240 0.41040
H21? H 0.32490 0.39100 0.50760
C17 C 0.028(3) 0.427(2) 0.274(4)
C18 C 0.0343(16) 0.5041(9) 0.288(3)
H22 H 0.05320 0.52440 0.21140
H23 H 0.06560 0.51480 0.35730
H24 H -0.01160 0.52450 0.30450
C19 C -0.0443(12) 0.414(3) 0.309(5)
H25 H -0.05740 0.44530 0.37710
H26 H -0.04940 0.36430 0.33580
H27 H -0.07450 0.42240 0.23750
C20 C 0.028(3) 0.417(3) 0.139(3)
H28 H 0.07470 0.42750 0.10620
H29 H -0.00570 0.44880 0.10090
H30 H 0.01610 0.36770 0.11930
C21? C 0.028(3) 0.406(3) 0.205(3)
C22? C 0.031(3) 0.451(2) 0.295(6)
H31? H 0.07870 0.45120 0.32900
H32? H -0.00140 0.43690 0.36040
H33? H 0.01950 0.49830 0.26500
C23? C -0.0313(15) 0.375(2) 0.196(5)
H34? H -0.05860 0.39720 0.13000
H35? H -0.05630 0.37930 0.27500
H36? H -0.02400 0.32490 0.17690
C24? C 0.049(2) 0.432(3) 0.100(4)
H37? H 0.09450 0.41120 0.07870
H38? H 0.05400 0.48350 0.10640
H39? H 0.01560 0.42050 0.03460
C25 C 0.2484(7) 0.25000 0.0962(11)
C26 C 0.3106(10) 0.2165(10) 0.1514(18)
H40 H 0.30140 0.16610 0.16590
H41 H 0.32150 0.23960 0.23040
H42 H 0.35000 0.22150 0.09460
C27 C 0.2594(18) 0.3261(9) 0.077(2)
H43 H 0.29610 0.33330 0.01570
H44 H 0.27340 0.15200 0.15610
H45 H 0.21620 0.34800 0.04820
C28 C 0.2323(13) 0.2145(10) -0.0224(17)
H46 H 0.18180 0.21380 -0.03490
H47 H 0.24990 0.33410 -0.02040
H48 H 0.25440 0.24040 -0.09070
C29 C 0.0085(8) 0.25000 0.7315(14)
C30 C 0.0088(12) 0.2956(12) 0.8336(18)
H49 H 0.03740 0.27520 0.89970
H50 H -0.03890 0.30190 0.86370
H51 H 0.02790 0.34150 0.80900
C31 C 0.0237(16) 0.1857(10) 0.775(2)
H52 H 0.01220 0.14990 0.71280
H53 H -0.00340 0.32320 0.85080
H54 H 0.07340 0.18320 0.79480
C32 C -0.0552(9) 0.25000 0.6809(19)
H55 H -0.07350 0.29840 0.67990
H56 H -0.08600 0.21970 0.73010
H57 H -0.05260 0.23190 0.59590
Co1 Co 0.12641(6) 0.25000 0.41159(9)
O1 O 0.1824(2) 0.3185(3) 0.4867(7)
O2 O 0.0715(2) 0.3186(3) 0.3371(6)
O3 O 0.1892(4) 0.25000 0.2799(7)
O4 O 0.0635(3) 0.25000 0.5423(6)
C1G C 0.1769(9) 0.1200(12) 0.491(2)
C2G C 0.129(1) 0.0805(10) 0.4153(16)
H1G H 0.13160 0.03020 0.41510
C3G C 0.0788(9) 0.1137(10) 0.3422(16)
C4G C 0.0843(10) 0.1567(10) 0.240(2)
C5G C 0.1374(10) 0.1693(9) 0.1612(18)
H2G H 0.14040 0.14300 0.08640
C6G C 0.1883(8) 0.2207(9) 0.1874(14)
C7G C 0.1718(10) 0.1520(12) 0.577(2)
C8G C 0.1196(11) 0.1663(10) 0.6579(16)
H3G H 0.11790 0.14000 0.73290
C9G C 0.0655(7) 0.2195(7) 0.6369(14)
C10G C 0.2316(6) 0.0869(6) 0.5910(13)
C11G C 0.2973(13) 0.116(2) 0.583(4)
H4G H 0.30740 0.12820 0.49660
H5G H 0.29950 0.15890 0.63430
H6G H 0.33170 0.08170 0.61290
C13G C 0.216(2) 0.071(2) 0.712(2)
H10G H 0.25830 0.07210 0.76200
H11G H 0.18280 0.10620 0.74400
H12G H 0.19490 0.02380 0.71610
C15G C 0.226(2) 0.028(2) 0.518(4)
H16G H 0.17900 0.00830 0.52630
H17G H 0.23370 0.04150 0.43080
H18G H 0.26030 -0.00700 0.54280
C17G C 0.028(3) 0.073(2) 0.274(4)
C18G C 0.0343(16) -0.0041(9) 0.288(3)
H22G H 0.05320 -0.02440 0.21140
H23G H 0.06560 -0.01480 0.35730
H24G H -0.01160 -0.02450 0.30450
C19G C -0.0443(12) 0.086(3) 0.309(5)
H25G H -0.05740 0.05470 0.37710
H26G H -0.04940 0.13570 0.33580
H27G H -0.07450 0.07760 0.23750
C20G C 0.028(3) 0.083(3) 0.139(3)
H28G H 0.07470 0.07250 0.10620
H29G H -0.00570 0.05120 0.10090
H30G H 0.01610 0.13230 0.11930
C26G C 0.3106(10) 0.2835(10) 0.1514(18)
H40G H 0.30140 0.33390 0.16590
H41G H 0.32150 0.26040 0.23040
H42G H 0.35000 0.27850 0.09460
C27G C 0.2594(18) 0.1739(9) 0.077(2)
H43G H 0.29610 0.16670 0.01570
H44G H 0.27340 0.34800 0.15610
H45G H 0.21620 0.15200 0.04820
C28G C 0.2323(13) 0.2855(10) -0.0224(17)
H46G H 0.18180 0.28620 -0.03490
H47G H 0.24990 0.16590 -0.02040
H48G H 0.25440 0.25960 -0.09070
C30G C 0.0088(12) 0.2044(12) 0.8336(18)
H49G H 0.03740 0.22480 0.89970
H50G H -0.03890 0.19810 0.86370
H51G H 0.02790 0.15850 0.80900
C31G C 0.0237(16) 0.3143(10) 0.775(2)
H52G H 0.01220 0.35010 0.71280
H53G H -0.00340 0.17680 0.85080
H54G H 0.07340 0.31680 0.79480
H55G H -0.07350 0.20160 0.67990
H56G H -0.08600 0.28030 0.73010
H57G H -0.05260 0.26810 0.59590
O1G O 0.1824(2) 0.1815(3) 0.4867(7)
O2G O 0.0715(2) 0.1814(3) 0.3371(6)
#END

data_CSD_CIF_ICAFIB01
_audit_creation_date 2005-03-21
_audit_creation_method CSD-ConQuest-V1
_database_code_CSD ICAFIB01
_database_code_depnum_ccdc_archive 'CCDC 230342'
_chemical_formula_sum 'C22 H38 O5 V1'
_chemical_formula_moiety
;
C22 H38 O5 V1
;
_journal_coden_Cambridge 29
_journal_volume 630
_journal_year 2004
_journal_page_first 2311
_journal_name_full 'Z.Anorg.Allg.Chem. '
loop_
_publ_author_name
"M.A.K.Ahmed"
"H.Fjellvag"
"A.Kjekshus"
"B.Klewe"
_chemical_name_systematic
;
bis(2,2,6,6-Tetramethylheptane-3,5-dionato)-oxo-vanadium(iv)
;
_cell_volume   1230.280
_exptl_crystal_colour 'blue'
_exptl_crystal_density_diffrn 1.17
_exptl_crystal_description 'elongated plate'
_diffrn_ambient_temperature 105
_refine_special_details
;
One t-butyl group is disordered over two sites with 0.781:0.219 occupancies.

;
#These two values have been output from a single CSD field.
_refine_ls_R_factor_gt 0.0228
_refine_ls_wR_factor_gt 0.0228
_symmetry_cell_setting monoclinic
_symmetry_space_group_name_H-M 'P 21'
_symmetry_Int_Tables_number 4
loop_
_symmetry_equiv_pos_site_id
_symmetry_equiv_pos_as_xyz
1 x,y,z
2 -x,1/2+y,-z
_cell_length_a 9.415(1)
_cell_length_b 10.833(1)
_cell_length_c 12.743(2)
_cell_angle_alpha 90
_cell_angle_beta 108.81(1)
_cell_angle_gamma 90
_cell_formula_units_Z 2
loop_
_atom_type_symbol
_atom_type_radius_bond
C 0.68
H 0.23
O 0.68
V 1.30
loop_
_atom_site_label
_atom_site_type_symbol
_atom_site_fract_x
_atom_site_fract_y
_atom_site_fract_z
V1 V 0.278864(19) 0.107352(19) 0.685018(13)
O1 O 0.37037(11) -0.01786(9) 0.71972(8)
O2 O 0.37128(9) 0.19812(8) 0.58948(7)
O3 O 0.11076(10) 0.07213(8) 0.55009(7)
O4 O 0.12278(8) 0.10280(11) 0.75695(6)
O5 O 0.37948(9) 0.23289(8) 0.79734(7)
C1 C 0.39243(19) 0.40010(15) 0.42979(16)
H1 H 0.45640 0.45210 0.40080
H2 H 0.39700 0.42940 0.50360
H3 H 0.28870 0.40440 0.37990
C2 C 0.4471(2) 0.22001(18) 0.32415(13)
H4 H 0.51570 0.27050 0.29850
H5 H 0.34540 0.22640 0.27110
H6 H 0.47980 0.13370 0.33000
C3 C 0.60863(16) 0.26078(16) 0.51865(13)
H7 H 0.67480 0.30890 0.48860
H8 H 0.64270 0.17480 0.52860
H9 H 0.61120 0.29530 0.59030
C4 C 0.44750(14) 0.26596(12) 0.43785(10)
C5 C 0.34236(13) 0.19115(11) 0.48405(10)
C6 C 0.21949(13) 0.12794(12) 0.41370(9)
H10 H 0.21190 0.12010 0.33780
C7 C 0.10685(13) 0.07548(10) 0.44869(9)
C8 C -0.0375(3) 0.0250(3) 0.36249(19)
C9 C -0.1212(2) 0.13324(19) 0.28952(18)
H11 H -0.14980 0.19410 0.33600
H12 H -0.21150 0.10200 0.23310
H13 H -0.05540 0.17220 0.25330
C10 C 0.0062(2) -0.0688(2) 0.28796(16)
H14 H 0.05970 -0.13800 0.33310
H15 H 0.07130 -0.02880 0.25170
H16 H -0.08460 -0.09930 0.23150
C11 C -0.1384(2) -0.0350(2) 0.41966(16)
H17 H -0.08490 -0.10360 0.46580
H18 H -0.22920 -0.06620 0.36380
H19 H -0.16620 0.02610 0.46640
C12? C -0.027(2) 0.0142(14) 0.3739(12)
C13? C -0.1610(8) 0.0936(8) 0.3780(6)
H20? H -0.16230 0.09800 0.45440
H21? H -0.25460 0.05630 0.33070
H22? H -0.15120 0.17700 0.35130
C14? C -0.0301(9) 0.0063(8) 0.2531(7)
H23? H -0.12630 -0.02840 0.20740
H24? H 0.05190 -0.04690 0.24840
H25? H -0.01780 0.08910 0.22630
C15? C -0.0557(9) -0.1151(8) 0.4160(7)
H26? H -0.05870 -0.10800 0.49190
H27? H 0.02520 -0.17150 0.41480
H28? H -0.15180 -0.14740 0.36760
C16 C -0.14157(16) 0.14834(17) 0.82060(16)
H29 H -0.22690 0.11970 0.84220
H30 H -0.15880 0.12830 0.74250
H31 H -0.13080 0.23790 0.83100
C17 C -0.01165(19) -0.05490(14) 0.87048(16)
H32 H -0.09420 -0.08820 0.89300
H33 H 0.08240 -0.09510 0.91330
H34 H -0.03130 -0.07050 0.79130
C18 C 0.02475(17) 0.1063(2) 1.01586(12)
H35 H -0.06180 0.07440 1.03410
H36 H 0.03540 0.19490 1.03190
H37 H 0.11580 0.06330 1.06050
C19 C 0.00107(14) 0.08479(11) 0.89220(11)
C20 C 0.13252(12) 0.13257(10) 0.85628(9)
C21 C 0.24707(13) 0.20508(12) 0.92503(9)
H38 H 0.24860 0.21950 0.99890
C22 C 0.36066(12) 0.25796(10) 0.88998(9)
C23 C 0.47179(13) 0.35112(11) 0.9637(1)
C24 C 0.59221(15) 0.27706(13) 1.05274(12)
H39 H 0.54420 0.22930 1.09730
H40 H 0.66540 0.33410 1.10080
H41 H 0.64340 0.22070 1.01650
C25 C 0.39258(15) 0.43918(12) 1.02126(11)
H42 H 0.31600 0.48650 0.96520
H43 H 0.46630 0.49600 1.06930
H44 H 0.34490 0.39130 1.06600
C26 C 0.54670(17) 0.42583(13) 0.89385(12)
H45 H 0.47020 0.47240 0.83720
H46 H 0.59830 0.36960 0.85790
H47 H 0.61960 0.48320 0.94180
#END

data_CSD_CIF_ICAFIB02
_audit_creation_date 2005-03-21
_audit_creation_method CSD-ConQuest-V1
_database_code_CSD ICAFIB02
_database_code_depnum_ccdc_archive 'CCDC 230343'
_chemical_formula_sum 'C22 H38 O5 V1'
_chemical_formula_moiety
;
C22 H38 O5 V1
;
_journal_coden_Cambridge 29
_journal_volume 630
_journal_year 2004
_journal_page_first 2311
_journal_name_full 'Z.Anorg.Allg.Chem. '
loop_
_publ_author_name
"M.A.K.Ahmed"
"H.Fjellvag"
"A.Kjekshus"
"B.Klewe"
_chemical_name_systematic
;
bis(2,2,6,6-Tetramethylheptane-3,5-dionato)-oxo-vanadium(iv)
;
_cell_volume   1291.447
_exptl_crystal_colour 'turquoise'
_exptl_crystal_density_diffrn 1.115
_exptl_crystal_description 'plate'
_diffrn_ambient_temperature 295
_refine_special_details
;
One t-butyl group is disordered over two sites with 0.557:0.443 occupancies.

;
#These two values have been output from a single CSD field.
_refine_ls_R_factor_gt 0.043
_refine_ls_wR_factor_gt 0.043
_symmetry_cell_setting monoclinic
_symmetry_space_group_name_H-M 'P 21'
_symmetry_Int_Tables_number 4
loop_
_symmetry_equiv_pos_site_id
_symmetry_equiv_pos_as_xyz
1 x,y,z
2 -x,1/2+y,-z
_cell_length_a 9.649(2)
_cell_length_b 11.032(3)
_cell_length_c 12.819(3)
_cell_angle_alpha 90
_cell_angle_beta 108.84(1)
_cell_angle_gamma 90
_cell_formula_units_Z 2
loop_
_atom_type_symbol
_atom_type_radius_bond
C 0.68
H 0.23
O 0.68
V 1.28
loop_
_atom_site_label
_atom_site_type_symbol
_atom_site_fract_x
_atom_site_fract_y
_atom_site_fract_z
V1 V 0.28415(5) 0.10373(5) 0.68731(3)
O1 O 0.3761(3) -0.0163(3) 0.7202(2)
O2 O 0.3692(2) 0.1969(2) 0.59170(17)
O3 O 0.1209(2) 0.0683(2) 0.55420(17)
O4 O 0.1328(2) 0.0973(3) 0.75886(16)
O5 O 0.3794(2) 0.2274(2) 0.79831(18)
C1 C 0.3851(9) 0.3953(6) 0.4328(8)
H1 H 0.30100 0.40410 0.36810
H2 H 0.46140 0.44870 0.42780
H3 H 0.35900 0.41550 0.49690
C2 C 0.4445(8) 0.2205(8) 0.3329(5)
H4 H 0.35190 0.23260 0.27650
H5 H 0.46660 0.13540 0.34020
H6 H 0.51970 0.26230 0.31310
C3 C 0.5929(6) 0.2649(8) 0.5195(6)
H7 H 0.62700 0.18260 0.52720
H8 H 0.59560 0.29570 0.59020
H9 H 0.65470 0.31350 0.49070
C4 C 0.4372(4) 0.2694(3) 0.4413(3)
C5 C 0.3369(3) 0.1943(3) 0.4871(3)
C6 C 0.2166(3) 0.1340(3) 0.4189(3)
H10 H 0.20480 0.13170 0.34400
C7 C 0.1131(3) 0.0771(3) 0.4537(2)
C8 C -0.021(2) 0.0178(12) 0.3771(13)
C9 C -0.1535(10) 0.0878(12) 0.3831(8)
H11 H -0.15470 0.08790 0.45770
H12 H -0.24110 0.05010 0.33620
H13 H -0.14830 0.16970 0.35930
C10 C -0.0258(13) 0.0203(12) 0.2562(9)
H14 H -0.11540 -0.01580 0.21050
H15 H 0.05590 -0.02450 0.24880
H16 H -0.02060 0.10270 0.23360
C11 C -0.0423(13) -0.1088(10) 0.4126(9)
H17 H -0.04060 -0.10790 0.48780
H18 H 0.03520 -0.15980 0.40600
H19 H -0.13480 -0.13980 0.36650
C12? C -0.032(3) 0.0289(15) 0.3661(17)
C13? C -0.1172(13) 0.1354(11) 0.2988(10)
H20? H -0.05840 0.17410 0.26060
H21? H -0.14000 0.19270 0.34720
H22? H -0.20620 0.10630 0.24620
C14? C 0.0089(15) -0.0553(14) 0.2864(11)
H23? H 0.07940 -0.01590 0.25960
H24? H -0.07690 -0.07440 0.22560
H25? H 0.05030 -0.12870 0.32400
C15? C -0.1309(14) -0.0241(12) 0.4246(10)
H26? H -0.13920 0.03170 0.47970
H27? H -0.09020 -0.09910 0.45910
H28? H -0.22610 -0.03880 0.37240
C16 C -0.1313(5) 0.1481(7) 0.8071(6)
H29 H -0.21590 0.11270 0.81890
H30 H -0.13360 0.13230 0.73290
H31 H -0.13140 0.23410 0.81880
C17 C -0.0070(7) -0.0449(5) 0.8711(7)
H32 H -0.08630 -0.07490 0.89370
H33 H 0.08310 -0.08130 0.91560
H34 H -0.02420 -0.06490 0.79510
C18 C 0.0197(7) 0.1171(10) 1.0041(5)
H35 H 0.12010 0.10560 1.04840
H36 H -0.04110 0.06160 1.02740
H37 H -0.00940 0.19880 1.01260
C19 C 0.0033(4) 0.0944(5) 0.8855(3)
C20 C 0.1349(3) 0.1350(3) 0.8533(2)
C21 C 0.2418(4) 0.2094(3) 0.9177(3)
H38 H 0.23730 0.22970 0.98700
C22 C 0.3565(3) 0.2570(3) 0.8875(2)
C23 C 0.4648(4) 0.3473(3) 0.9597(3)
C24 C 0.5825(5) 0.2777(4) 1.0459(5)
H39 H 0.65010 0.33360 1.09350
H40 H 0.63380 0.22620 1.01030
H41 H 0.53830 0.22900 1.08860
C25 C 0.3898(5) 0.4337(4) 1.0199(4)
H42 H 0.30660 0.47130 0.96710
H43 H 0.45800 0.49510 1.05790
H44 H 0.35810 0.38850 1.07210
C26 C 0.5304(7) 0.4258(5) 0.8885(5)
H45 H 0.45300 0.45760 0.82710
H46 H 0.59460 0.37730 0.86200
H47 H 0.58460 0.49150 0.93200
#END

data_CSD_CIF_INIYIO
_audit_creation_date 2011-06-16
_audit_creation_method CSD-ConQuest-V1
_database_code_CSD INIYIO
_database_code_depnum_ccdc_archive 'CCDC 786172'
_chemical_formula_sum 'C48 H86 Cr2 O10'
_chemical_formula_moiety
;
C48 H86 Cr2 O10
;
_journal_coden_Cambridge 29
_journal_volume 637
_journal_year 2011
_journal_page_first 56
_journal_name_full 'Z.Anorg.Allg.Chem. '
loop_
_publ_author_name
"M.A.K.Ahmed"
"H.Fjellvag"
"A.Kjekshus"
"D.S.Wragg"
"N.S.Gupta"
_chemical_name_systematic
;
bis(\m~2~-ethoxo)-tetrakis(2,2,6,6-tetramethylheptane-3,5-dionato)-di-chromium
;
_cell_volume   1374.956
_exptl_crystal_colour 'green'
_exptl_crystal_density_diffrn 1.12
_exptl_crystal_description 'needle'
_diffrn_ambient_temperature 296
#These two values have been output from a single CSD field.
_refine_ls_R_factor_gt 0.0719
_refine_ls_wR_factor_gt 0.0719
_symmetry_cell_setting triclinic
_symmetry_space_group_name_H-M 'P -1'
_symmetry_Int_Tables_number 2
loop_
_symmetry_equiv_pos_site_id
_symmetry_equiv_pos_as_xyz
1 x,y,z
2 -x,-y,-z
_cell_length_a 10.2919(15)
_cell_length_b 10.6686(16)
_cell_length_c 14.194(3)
_cell_angle_alpha 106.559(2)
_cell_angle_beta 107.869(2)
_cell_angle_gamma 98.326(2)
_cell_formula_units_Z 1
loop_
_atom_type_symbol
_atom_type_radius_bond
C 0.68
H 0.23
Cr 1.39
O 0.68
loop_
_atom_site_label
_atom_site_type_symbol
_atom_site_fract_x
_atom_site_fract_y
_atom_site_fract_z
O1 O 0.5758(5) 0.4367(5) 0.4690(4)
O2 O 0.8010(6) 0.5362(6) 0.6725(5)
C1 C 0.7882(12) 0.8170(13) 0.6606(10)
O3 O 0.6192(6) 0.6746(7) 0.7465(5)
C2 C 0.6926(13) 0.7862(15) 0.799(1)
C3 C 0.6067(13) 0.3778(11) 0.7314(9)
C4 C 0.6866(13) 0.843(1) 0.9126(7)
C5 C 0.9119(15) 0.8301(14) 0.5389(12)
H1 H 0.96720 0.77040 0.55920
H2 H 0.96300 0.89000 0.51570
H3 H 0.82440 0.77800 0.48240
C6 C 0.5250(11) 0.2915(10) 0.7726(8)
C7 C 0.8824(11) 0.9111(10) 0.6315(7)
C8 C 0.7511(19) 0.7672(14) 0.9769(11)
H4 H 0.84760 0.77580 0.98270
H5 H 0.70040 0.67350 0.94430
H6 H 0.74760 0.80240 1.04610
C9 C 0.6744(12) 0.3862(13) 0.4289(8)
H7 H 0.76830 0.44370 0.47310
H8 H 0.65410 0.38900 0.35830
C10 C 1.0104(10) 0.5089(12) 0.7808(9)
C11 C 0.8457(13) 0.4854(11) 0.7353(11)
C12 C 0.6074(16) 0.296(2) 0.8812(13)
H9 H 0.69760 0.28020 0.88390
H10 H 0.55660 0.22820 0.89780
H11 H 0.62080 0.38380 0.93150
C13 C 0.7830(12) 0.8654(11) 0.7671(10)
H12 H 0.83990 0.94960 0.81470
C14 C 0.7702(17) 0.9943(14) 0.9719(10)
H13 H 0.73090 1.04790 0.93210
H14 H 0.86750 1.00320 0.97990
H15 H 0.76350 1.02500 1.04040
C15 C 0.5354(15) 0.8377(16) 0.8976(11)
H16 H 0.50130 0.89000 0.85480
H17 H 0.52760 0.87410 0.96510
H18 H 0.48030 0.74550 0.86310
C16 C 1.0194(16) 0.9920(16) 0.7190(11)
H19 H 1.07340 0.93200 0.74050
H20 H 1.00130 1.04640 0.77790
H21 H 1.07150 1.04950 0.69470
C17 C 1.0572(14) 0.4252(17) 0.8523(12)
H22 H 1.01510 0.33070 0.81230
H23 H 1.02750 0.45140 0.91130
H24 H 1.15820 0.44150 0.87750
C18 C 0.3881(16) 0.3201(19) 0.7651(14)
H25 H 0.34030 0.26380 0.79270
H26 H 0.33200 0.30170 0.69250
H27 H 0.40210 0.41340 0.80520
C19 C 0.6713(18) 0.2512(16) 0.4254(12)
H28 H 0.73990 0.22060 0.39790
H29 H 0.57900 0.19360 0.38060
H30 H 0.69290 0.24830 0.49540
C20 C 1.0763(18) 0.6489(15) 0.8445(17)
H31 H 1.04110 0.67470 0.90050
H32 H 1.05520 0.70370 0.80140
H33 H 1.17670 0.66170 0.87390
C21 C 0.493(2) 0.1486(16) 0.6956(19)
H34 H 0.58020 0.12460 0.69770
H35 H 0.44090 0.14420 0.62540
H36 H 0.43860 0.08670 0.71510
C22 C 0.7980(18) 1.0039(16) 0.5980(15)
H37 H 0.77870 1.05740 0.65670
H38 H 0.71060 0.95170 0.54130
H39 H 0.85030 1.06230 0.57450
C23 C 1.0485(15) 0.4494(19) 0.6884(12)
H40 H 0.99680 0.35620 0.65290
H41 H 1.14790 0.45530 0.71170
H42 H 1.02560 0.49800 0.64070
C24 C 0.7618(14) 0.4078(12) 0.7727(9)
H43 H 0.80660 0.37520 0.82480
Cr1 Cr 0.61148(13) 0.55558(12) 0.61163(10)
O4 O 0.5392(6) 0.4106(5) 0.6564(5)
O5 O 0.7078(6) 0.7113(6) 0.5908(5)
O1A O 0.4242(5) 0.5633(5) 0.5310(4)
O2A O 0.1990(6) 0.4638(6) 0.3275(5)
C1A C 0.2118(12) 0.1830(13) 0.3394(10)
O3A O 0.3808(6) 0.3254(7) 0.2535(5)
C2A C 0.3074(13) 0.2138(15) 0.201(1)
C3A C 0.3933(13) 0.6222(11) 0.2686(9)
C4A C 0.3134(13) 0.157(1) 0.0874(7)
C5A C 0.0881(15) 0.1699(14) 0.4611(12)
H1A H 0.03280 0.22960 0.44080
H2A H 0.03700 0.11000 0.48430
H3A H 0.17560 0.22200 0.51760
C6A C 0.4750(11) 0.7085(10) 0.2274(8)
C7A C 0.1176(11) 0.0889(10) 0.3685(7)
C8A C 0.2489(19) 0.2328(14) 0.0231(11)
H4A H 0.15240 0.22420 0.01730
H5A H 0.29960 0.32650 0.05570
H6A H 0.25240 0.19760 -0.04610
C9A C 0.3256(12) 0.6138(13) 0.5711(8)
H7A H 0.23170 0.55630 0.52690
H8A H 0.34590 0.61100 0.64170
C10A C -0.0104(10) 0.4911(12) 0.2192(9)
C11A C 0.1543(13) 0.5146(11) 0.2647(11)
C12A C 0.3926(16) 0.704(2) 0.1188(13)
H9A H 0.30240 0.71980 0.11610
H10A H 0.44340 0.77180 0.10220
H11A H 0.37920 0.61620 0.06850
C13A C 0.2170(12) 0.1346(11) 0.2329(10)
H12A H 0.16010 0.05040 0.18530
C14A C 0.2298(17) 0.0057(14) 0.0281(10)
H13A H 0.26910 -0.04790 0.06790
H14A H 0.13250 -0.00320 0.02010
H15A H 0.23650 -0.02500 -0.04040
C15A C 0.4646(15) 0.1623(16) 0.1024(11)
H16A H 0.49870 0.11000 0.14520
H17A H 0.47240 0.12590 0.03490
H18A H 0.51970 0.25450 0.13690
C16A C -0.0194(16) 0.0080(16) 0.2810(11)
H19A H -0.07340 0.06800 0.25950
H20A H -0.00130 -0.04640 0.22210
H21A H -0.07150 -0.04950 0.30530
C17A C -0.0572(14) 0.5748(17) 0.1477(12)
H22A H -0.01510 0.66930 0.18770
H23A H -0.02750 0.54860 0.08870
H24A H -0.15820 0.55850 0.12250
C18A C 0.6119(16) 0.6799(19) 0.2349(14)
H25A H 0.65970 0.73620 0.20730
H26A H 0.66800 0.69830 0.30750
H27A H 0.59790 0.58660 0.19480
C19A C 0.3287(18) 0.7488(16) 0.5746(12)
H28A H 0.26010 0.77940 0.60210
H29A H 0.42100 0.80640 0.61940
H30A H 0.30710 0.75170 0.50460
C20A C -0.0763(18) 0.3511(15) 0.1555(17)
H31A H -0.04110 0.32530 0.09950
H32A H -0.05520 0.29630 0.19860
H33A H -0.17670 0.33830 0.12610
C21A C 0.507(2) 0.8514(16) 0.3044(19)
H34A H 0.41980 0.87540 0.30230
H35A H 0.55910 0.85580 0.37460
H36A H 0.56140 0.91330 0.28490
C22A C 0.2020(18) -0.0039(16) 0.4020(15)
H37A H 0.22130 -0.05740 0.34330
H38A H 0.28940 0.04830 0.45870
H39A H 0.14970 -0.06230 0.42550
C23A C -0.0485(15) 0.5506(19) 0.3116(12)
H40A H 0.00320 0.64380 0.34710
H41A H -0.14790 0.54470 0.28830
H42A H -0.02560 0.50200 0.35930
C24A C 0.2382(14) 0.5922(12) 0.2273(9)
H43A H 0.19340 0.62480 0.17520
Cr1A Cr 0.38852(13) 0.44442(12) 0.38837(10)
O4A O 0.4608(6) 0.5894(5) 0.3436(5)
O5A O 0.2922(6) 0.2887(6) 0.4092(5)
#END

data_CSD_CIF_JAMDUX
_audit_creation_date 2005-03-21
_audit_creation_method CSD-ConQuest-V1
_database_code_CSD JAMDUX
_database_code_depnum_ccdc_archive 'CCDC 230340'
_chemical_formula_sum 'C14 H24 O8 V2'
_chemical_formula_moiety
;
C14 H24 O8 V2
;
_journal_coden_Cambridge 29
_journal_volume 630
_journal_year 2004
_journal_page_first 2311
_journal_name_full 'Z.Anorg.Allg.Chem. '
loop_
_publ_author_name
"M.A.K.Ahmed"
"H.Fjellvag"
"A.Kjekshus"
"B.Klewe"
_chemical_name_systematic
;
bis((\m~2~-Ethoxo)-(acetylacetonato)-oxo-vanadium(iv))
;
_cell_volume   1889.363
_exptl_crystal_colour 'blue'
_exptl_crystal_density_diffrn 1.484
_exptl_crystal_description 'Plate'
_exptl_crystal_preparation 'sublimation'
_diffrn_ambient_temperature 105
_refine_special_details
;
One ethyl group is disordered over two sites with 0.79:0.21 occupancies.

;
#These two values have been output from a single CSD field.
_refine_ls_R_factor_gt 0.0326
_refine_ls_wR_factor_gt 0.0326
_symmetry_cell_setting monoclinic
_symmetry_space_group_name_H-M 'P 21/c'
_symmetry_Int_Tables_number 14
loop_
_symmetry_equiv_pos_site_id
_symmetry_equiv_pos_as_xyz
1 x,y,z
2 x,1/2-y,1/2+z
3 -x,-y,-z
4 -x,-1/2+y,-1/2-z
_cell_length_a 14.775(2)
_cell_length_b 8.788(1)
_cell_length_c 15.742(2)
_cell_angle_alpha 90
_cell_angle_beta 112.429(5)
_cell_angle_gamma 90
_cell_formula_units_Z 4
loop_
_atom_type_symbol
_atom_type_radius_bond
C 0.68
H 0.23
O 0.68
V 1.30
loop_
_atom_site_label
_atom_site_type_symbol
_atom_site_fract_x
_atom_site_fract_y
_atom_site_fract_z
V1 V 0.32586(2) 0.84409(4) 0.08085(2)
V2 V 0.14303(2) 0.95715(4) -0.07806(2)
O1 O 0.4139(1) 0.82309(17) 0.04736(10)
O2 O 0.16530(12) 0.96936(18) -0.16884(10)
O3 O 0.32661(10) 0.65889(16) 0.15274(10)
O4 O 0.37520(11) 0.95317(16) 0.19889(10)
O5 O 0.01617(10) 0.85237(16) -0.11267(10)
O6 O 0.07331(10) 1.14753(16) -0.07442(10)
O7 O 0.25571(9) 1.03301(14) 0.02697(9)
C1 C 0.36455(17) 0.4739(2) 0.27004(16)
H1 H 0.33290 0.40900 0.21620
H2 H 0.32750 0.46950 0.31000
H3 H 0.43150 0.43810 0.30400
H4? H 0.39500 0.46870 0.33720
H5? H 0.40050 0.40820 0.24340
H6? H 0.29640 0.43960 0.24940
C2 C 0.36722(14) 0.6353(2) 0.23936(14)
C3 C 0.40919(16) 0.7483(2) 0.30420(14)
H7 H 0.43900 0.71970 0.36700
C4 C 0.40962(14) 0.9014(2) 0.28154(14)
C5 C 0.45093(18) 1.0185(3) 0.35537(16)
H8 H 0.44550 1.11940 0.32730
H9 H 0.52000 0.99570 0.39130
H10 H 0.41440 1.01720 0.39580
H11? H 0.47440 0.96880 0.41560
H12? H 0.39990 1.09250 0.35170
H13? H 0.50550 1.07110 0.34710
C6 C -0.15164(16) 0.7938(3) -0.17844(17)
H14 H -0.12370 0.69130 -0.17260
H15 H -0.19080 0.81500 -0.24330
H16 H -0.19340 0.80030 -0.14290
H17? H -0.21490 0.84640 -0.19990
H18? H -0.14780 0.72270 -0.12920
H19? H -0.14520 0.73750 -0.22960
C7 C -0.07042(14) 0.9083(2) -0.14258(13)
C8 C -0.09080(15) 1.0629(2) -0.14321(15)
H20 H -0.15740 1.09430 -0.16810
C9 C -0.01879(15) 1.1743(2) -0.10923(14)
C10 C -0.04746(17) 1.3386(2) -0.11160(17)
H21 H 0.01160 1.40130 -0.08540
H22 H -0.08830 1.35220 -0.07560
H23 H -0.08430 1.36950 -0.17530
H24? H -0.11900 1.34730 -0.13890
H25? H -0.01910 1.39640 -0.14860
H26? H -0.02310 1.37920 -0.04890
O8 O 0.20262(10) 0.77017(15) -0.01165(9)
C11 C 0.1766(12) 0.6199(14) -0.0428(9)
H27 H 0.10500 0.61430 -0.07750
H28 H 0.19360 0.55090 0.01070
C12 C 0.2280(7) 0.5685(4) -0.1032(4)
H29 H 0.20970 0.46300 -0.12230
H30 H 0.29900 0.57480 -0.06920
H31 H 0.20910 0.63390 -0.15760
C13? C 0.173(5) 0.604(6) -0.035(4)
H32? H 0.21620 0.53610 0.01440
H33? H 0.10450 0.58780 -0.03970
C14? C 0.1815(17) 0.5682(17) -0.1240(12)
H34? H 0.16310 0.46190 -0.14050
H35? H 0.24930 0.58430 -0.11810
H36? H 0.13800 0.63520 -0.17190
C15 C 0.29636(15) 1.1835(2) 0.04186(14)
H37 H 0.33970 1.19570 0.10730
H38 H 0.24290 1.25920 0.02730
C16 C 0.35407(18) 1.2119(3) -0.01769(16)
H39 H 0.38090 1.31530 -0.00700
H40 H 0.31100 1.20050 -0.08250
H41 H 0.40780 1.13830 -0.00230
#END

data_CSD_CIF_JAMDUX01
_audit_creation_date 2005-03-21
_audit_creation_method CSD-ConQuest-V1
_database_code_CSD JAMDUX01
_database_code_depnum_ccdc_archive 'CCDC 230341'
_chemical_formula_sum 'C14 H24 O8 V2'
_chemical_formula_moiety
;
C14 H24 O8 V2
;
_journal_coden_Cambridge 29
_journal_volume 630
_journal_year 2004
_journal_page_first 2311
_journal_name_full 'Z.Anorg.Allg.Chem. '
loop_
_publ_author_name
"M.A.K.Ahmed"
"H.Fjellvag"
"A.Kjekshus"
"B.Klewe"
_chemical_name_systematic
;
bis((\m~2~-Ethoxo)-(acetylacetonato)-oxo-vanadium(iv))
;
_cell_volume   1969.147
_exptl_crystal_colour 'blue'
_exptl_crystal_density_diffrn 1.424
_exptl_crystal_description 'thin plate'
_exptl_crystal_preparation 'sublimation'
_diffrn_ambient_temperature 295
#These two values have been output from a single CSD field.
_refine_ls_R_factor_gt 0.0327
_refine_ls_wR_factor_gt 0.0327
_symmetry_cell_setting monoclinic
_symmetry_space_group_name_H-M 'P 21/c'
_symmetry_Int_Tables_number 14
loop_
_symmetry_equiv_pos_site_id
_symmetry_equiv_pos_as_xyz
1 x,y,z
2 x,1/2-y,1/2+z
3 -x,-y,-z
4 -x,-1/2+y,-1/2-z
_cell_length_a 15.083(6)
_cell_length_b 8.901(3)
_cell_length_c 15.953(6)
_cell_angle_alpha 90
_cell_angle_beta 113.16(2)
_cell_angle_gamma 90
_cell_formula_units_Z 4
loop_
_atom_type_symbol
_atom_type_radius_bond
C 0.68
H 0.23
O 0.68
V 1.29
loop_
_atom_site_label
_atom_site_type_symbol
_atom_site_fract_x
_atom_site_fract_y
_atom_site_fract_z
V1 V 0.32543(4) 0.84700(7) 0.07950(4)
V2 V 0.14330(4) 0.95699(8) -0.08046(4)
O1 O 0.41252(18) 0.8250(3) 0.04886(19)
O2 O 0.16265(19) 0.9697(3) -0.17039(17)
O3 O 0.32544(18) 0.6665(3) 0.15146(19)
O4 O 0.37369(18) 0.9564(3) 0.19593(18)
O5 O 0.01930(19) 0.8527(3) -0.11344(18)
O6 O 0.07454(19) 1.1437(3) -0.07597(18)
O7 O 0.20460(17) 0.7735(3) -0.01422(15)
O8 O 0.25548(16) 1.0318(3) 0.02350(16)
C1 C 0.3606(3) 0.4857(5) 0.2683(3)
H1 H 0.38450 0.41910 0.23470
H2 H 0.29540 0.45940 0.25760
H3 H 0.40000 0.47730 0.33220
C2 C 0.3638(3) 0.6451(5) 0.2376(3)
C3 C 0.4045(3) 0.7569(6) 0.2994(3)
H4 H 0.43290 0.73020 0.36060
C4 C 0.4066(3) 0.9058(5) 0.2778(3)
C5 C 0.4475(3) 1.0244(5) 0.3501(3)
H5 H 0.40310 1.10690 0.33750
H6 H 0.50780 1.05950 0.35050
H7 H 0.45760 0.98250 0.40860
C6 C -0.1453(3) 0.7929(5) -0.1760(3)
H8 H -0.13770 0.72070 -0.12900
H9 H -0.14320 0.74260 -0.22840
H10 H -0.20620 0.84290 -0.19250
C7 C -0.0656(3) 0.9060(5) -0.1419(3)
C8 C -0.0856(3) 1.0582(5) -0.1414(3)
H11 H -0.14990 1.08780 -0.16450
C9 C -0.0158(3) 1.1686(5) -0.1089(3)
C10 C -0.0450(3) 1.3301(4) -0.1103(3)
H12 H -0.00780 1.37570 -0.05260
H13 H -0.11230 1.33550 -0.12150
H14 H -0.03360 1.38240 -0.15780
C11 C 0.1785(3) 0.6209(4) -0.0426(3)
H15 H 0.10880 0.61180 -0.06830
H16 H 0.20380 0.55540 0.01020
C12 C 0.2154(6) 0.5731(6) -0.1097(4)
H17 H 0.19910 0.46950 -0.12480
H18 H 0.28420 0.58460 -0.08500
H19 H 0.18720 0.63350 -0.16350
C13 C 0.2946(3) 1.1816(4) 0.0384(3)
H20 H 0.33450 1.19480 0.10260
H21 H 0.24220 1.25360 0.02180
C14 C 0.3533(3) 1.2116(5) -0.0161(3)
H22 H 0.38050 1.31060 -0.00260
H23 H 0.31300 1.20480 -0.07990
H24 H 0.40420 1.13890 -0.00100
#END

data_CSD_CIF_JAMFOT
_audit_creation_date 2005-03-21
_audit_creation_method CSD-ConQuest-V1
_database_code_CSD JAMFOT
_database_code_depnum_ccdc_archive 'CCDC 230344'
_chemical_formula_sum 'C26 H48 O8 V2'
_chemical_formula_moiety
;
C26 H48 O8 V2
;
_journal_coden_Cambridge 29
_journal_volume 630
_journal_year 2004
_journal_page_first 2311
_journal_name_full 'Z.Anorg.Allg.Chem. '
loop_
_publ_author_name
"M.A.K.Ahmed"
"H.Fjellvag"
"A.Kjekshus"
"B.Klewe"
_chemical_name_systematic
;
bis((\m~2~-Ethoxo)-(2,2,6,6-tetramethylheptane-3,5-dionato)-oxo-vanadium(iv))
;
_cell_volume    765.905
_exptl_crystal_colour 'blue'
_exptl_crystal_density_diffrn 1.28
_exptl_crystal_description 'Prismatic'
_exptl_crystal_preparation 'sublimation'
_diffrn_ambient_temperature 105
#These two values have been output from a single CSD field.
_refine_ls_R_factor_gt 0.0396
_refine_ls_wR_factor_gt 0.0396
_symmetry_cell_setting triclinic
_symmetry_space_group_name_H-M 'P -1'
_symmetry_Int_Tables_number 2
loop_
_symmetry_equiv_pos_site_id
_symmetry_equiv_pos_as_xyz
1 x,y,z
2 -x,-y,-z
_cell_length_a 8.871(3)
_cell_length_b 9.988(4)
_cell_length_c 10.299(4)
_cell_angle_alpha 73.51(1)
_cell_angle_beta 68.70(1)
_cell_angle_gamma 65.85(1)
_cell_formula_units_Z 1
loop_
_atom_type_symbol
_atom_type_radius_bond
C 0.68
H 0.23
O 0.68
V 1.29
loop_
_atom_site_label
_atom_site_type_symbol
_atom_site_fract_x
_atom_site_fract_y
_atom_site_fract_z
V1 V 0.52759(5) 0.48259(4) 0.64440(4)
O1 O 0.4031(2) 0.41476(19) 0.77452(18)
O2 O 0.76111(19) 0.37776(16) 0.66783(16)
O3 O 0.53103(19) 0.65169(16) 0.70181(16)
O4 O 0.39830(19) 0.62429(15) 0.51342(16)
C1 C 1.1451(3) 0.3394(3) 0.6159(3)
H1 H 1.11820 0.34570 0.52950
H2 H 1.26030 0.26650 0.61400
H3 H 1.14160 0.43690 0.62170
C2 C 1.0522(3) 0.2831(3) 0.8792(3)
H4 H 1.06000 0.37810 0.87950
H5 H 1.16200 0.20330 0.88310
H6 H 0.96020 0.26280 0.96140
C3 C 1.0197(3) 0.1377(3) 0.7366(3)
H7 H 0.93320 0.10760 0.81800
H8 H 1.13450 0.06530 0.73740
H9 H 0.99610 0.14200 0.64930
C4 C 1.0122(3) 0.2911(2) 0.7445(2)
C5 C 0.8352(3) 0.4056(2) 0.7373(2)
C6 C 0.7687(3) 0.5355(2) 0.7951(2)
H10 H 0.82560 0.54370 0.85330
C7 C 0.6234(3) 0.6536(2) 0.7721(2)
C8 C 0.5609(3) 0.8006(2) 0.8260(2)
C9 C 0.3792(3) 0.8212(3) 0.9256(3)
H11 H 0.38390 0.74120 1.00690
H12 H 0.30570 0.81840 0.87540
H13 H 0.33160 0.91730 0.95820
C10 C 0.5557(3) 0.9256(2) 0.6982(3)
H14 H 0.51130 1.02160 0.73030
H15 H 0.48030 0.92480 0.64870
H16 H 0.67220 0.91010 0.63390
C11 C 0.6749(3) 0.8037(3) 0.9051(3)
H17 H 0.79290 0.78510 0.84320
H18 H 0.67400 0.72660 0.98890
H19 H 0.63090 0.90130 0.93400
C12 C 0.2790(3) 0.7719(2) 0.5274(2)
H20 H 0.25510 0.82320 0.43580
H21 H 0.33050 0.82810 0.55340
C13 C 0.1139(3) 0.7695(3) 0.6378(3)
H22 H 0.06140 0.71610 0.61090
H23 H 0.03490 0.87170 0.64610
H24 H 0.13740 0.71930 0.72870
V1A V 0.47241(5) 0.51741(4) 0.35560(4)
O1A O 0.5969(2) 0.58524(19) 0.22548(18)
O2A O 0.23889(19) 0.62224(16) 0.33217(16)
C5A C 0.1648(3) 0.5944(2) 0.2627(2)
C4A C -0.0122(3) 0.7089(2) 0.2555(2)
C1A C -0.1451(3) 0.6606(3) 0.3841(3)
H1A H -0.11820 0.65430 0.47050
H2A H -0.26030 0.73350 0.38600
H3A H -0.14160 0.56310 0.37830
C2A C -0.0522(3) 0.7169(3) 0.1208(3)
H4A H -0.06000 0.62190 0.12050
H5A H -0.16200 0.79670 0.11690
H6A H 0.03980 0.73720 0.03860
C3A C -0.0197(3) 0.8623(3) 0.2634(3)
H7A H 0.06680 0.89240 0.18200
H8A H -0.13450 0.93470 0.26260
H9A H 0.00390 0.85800 0.35070
C6A C 0.2313(3) 0.4645(2) 0.2049(2)
H10A H 0.17440 0.45630 0.14670
C7A C 0.3766(3) 0.3464(2) 0.2279(2)
O3A O 0.46897(19) 0.34831(16) 0.29819(16)
O4A O 0.60170(19) 0.37571(15) 0.48658(16)
C12A C 0.7210(3) 0.2281(2) 0.4726(2)
H20A H 0.74490 0.17680 0.56420
H21A H 0.66950 0.17190 0.44660
C13A C 0.8861(3) 0.2305(3) 0.3622(3)
H22A H 0.93860 0.28390 0.38910
H23A H 0.96510 0.12830 0.35390
H24A H 0.86260 0.28070 0.27130
C8A C 0.4391(3) 0.1994(2) 0.1740(2)
C9A C 0.6208(3) 0.1788(3) 0.0744(3)
H11A H 0.61610 0.25880 -0.00690
H12A H 0.69430 0.18160 0.12460
H13A H 0.66840 0.08270 0.04180
C10A C 0.4443(3) 0.0744(2) 0.3018(3)
H14A H 0.48870 -0.02160 0.26970
H15A H 0.51970 0.07520 0.35130
H16A H 0.32780 0.08990 0.36610
C11A C 0.3251(3) 0.1963(3) 0.0949(3)
H17A H 0.20710 0.21490 0.15680
H18A H 0.32600 0.27340 0.01110
H19A H 0.36910 0.09870 0.06600
#END

data_CSD_CIF_JAMFOT01
_audit_creation_date 2005-03-21
_audit_creation_method CSD-ConQuest-V1
_database_code_CSD JAMFOT01
_database_code_depnum_ccdc_archive 'CCDC 230345'
_chemical_formula_sum 'C26 H48 O8 V2'
_chemical_formula_moiety
;
C26 H48 O8 V2
;
_journal_coden_Cambridge 29
_journal_volume 630
_journal_year 2004
_journal_page_first 2311
_journal_name_full 'Z.Anorg.Allg.Chem. '
loop_
_publ_author_name
"M.A.K.Ahmed"
"H.Fjellvag"
"A.Kjekshus"
"B.Klewe"
_chemical_name_systematic
;
bis((\m~2~-Ethoxo)-(2,2,6,6-tetramethylheptane-3,5-dionato)-oxo-vanadium(iv))
;
_cell_volume    801.848
_exptl_crystal_colour 'blue'
_exptl_crystal_density_diffrn 1.223
_exptl_crystal_description 'Plate'
_exptl_crystal_preparation 'sublimation'
_diffrn_ambient_temperature 295
#These two values have been output from a single CSD field.
_refine_ls_R_factor_gt 0.0367
_refine_ls_wR_factor_gt 0.0367
_symmetry_cell_setting triclinic
_symmetry_space_group_name_H-M 'P -1'
_symmetry_Int_Tables_number 2
loop_
_symmetry_equiv_pos_site_id
_symmetry_equiv_pos_as_xyz
1 x,y,z
2 -x,-y,-z
_cell_length_a 9.121(2)
_cell_length_b 9.527(2)
_cell_length_c 10.708(2)
_cell_angle_alpha 71.90(1)
_cell_angle_beta 72.00(1)
_cell_angle_gamma 68.34(1)
_cell_formula_units_Z 1
loop_
_atom_type_symbol
_atom_type_radius_bond
C 0.68
H 0.23
O 0.68
V 1.29
loop_
_atom_site_label
_atom_site_type_symbol
_atom_site_fract_x
_atom_site_fract_y
_atom_site_fract_z
V1 V 0.54286(4) 0.46375(4) 0.63779(4)
O1 O 0.4441(2) 0.3646(2) 0.75683(18)
O2 O 0.76820(18) 0.36818(18) 0.65845(17)
O3 O 0.54329(18) 0.63501(18) 0.70268(16)
O4 O 0.39529(18) 0.61746(17) 0.52399(16)
C1 C 1.1236(4) 0.3001(5) 0.6174(3)
H1 H 1.12920 0.40360 0.59820
H2 H 1.09020 0.28770 0.54590
H3 H 1.22820 0.22740 0.62510
C2 C 1.0636(4) 0.2792(4) 0.8637(3)
H4 H 1.16070 0.19510 0.87460
H5 H 0.98260 0.27170 0.94570
H6 H 1.08600 0.37580 0.84270
C3 C 0.9814(4) 0.1119(3) 0.7817(4)
H7 H 0.95340 0.09920 0.70740
H8 H 0.89680 0.10190 0.86080
H9 H 1.08070 0.03400 0.79770
C4 C 1.0022(3) 0.2711(3) 0.7490(3)
C5 C 0.8393(3) 0.3925(2) 0.7323(2)
C6 C 0.7779(3) 0.5203(3) 0.7895(2)
H10 H 0.83470 0.52730 0.84490
C7 C 0.6365(3) 0.6386(3) 0.7691(2)
C8 C 0.5806(3) 0.7856(3) 0.8215(2)
C9 C 0.4138(4) 0.7962(4) 0.9161(4)
H11 H 0.33940 0.79990 0.86750
H12 H 0.37570 0.88820 0.95050
H13 H 0.42180 0.70700 0.98960
C10 C 0.5678(6) 0.9226(3) 0.7016(3)
H14 H 0.67130 0.91190 0.64000
H15 H 0.53440 1.01670 0.73200
H16 H 0.48980 0.92570 0.65690
C11 C 0.6938(4) 0.7890(4) 0.8999(3)
H17 H 0.70160 0.70260 0.97600
H18 H 0.65150 0.88380 0.93060
H19 H 0.79910 0.78260 0.84230
C12 C 0.2757(3) 0.7593(3) 0.5505(3)
H20 H 0.23560 0.81940 0.46980
H21 H 0.32460 0.81960 0.57390
C13 C 0.1398(4) 0.7289(4) 0.6613(4)
H22 H 0.08880 0.67250 0.63690
H23 H 0.06250 0.82550 0.67830
H24 H 0.17940 0.66900 0.74110
V1A V 0.45714(4) 0.53625(4) 0.36221(4)
O1A O 0.5559(2) 0.6354(2) 0.24317(18)
O2A O 0.23180(18) 0.63182(18) 0.34155(17)
C5A C 0.1607(3) 0.6075(2) 0.2677(2)
C4A C -0.0022(3) 0.7289(3) 0.2510(3)
C1A C -0.1236(4) 0.6999(5) 0.3826(3)
H1A H -0.12920 0.59640 0.40180
H2A H -0.09020 0.71230 0.45410
H3A H -0.22820 0.77260 0.37490
C2A C -0.0636(4) 0.7208(4) 0.1363(3)
H4A H -0.16070 0.80490 0.12540
H5A H 0.01740 0.72830 0.05430
H6A H -0.08600 0.62420 0.15730
C3A C 0.0186(4) 0.8881(3) 0.2183(4)
H7A H 0.04660 0.90080 0.29260
H8A H 0.10320 0.89810 0.13920
H9A H -0.08070 0.96600 0.20230
C6A C 0.2221(3) 0.4797(3) 0.2105(2)
H10A H 0.16530 0.47270 0.15510
C7A C 0.3635(3) 0.3614(3) 0.2309(2)
O3A O 0.45671(18) 0.36499(18) 0.29732(16)
O4A O 0.60471(18) 0.38254(17) 0.47601(16)
C12A C 0.7243(3) 0.2407(3) 0.4495(3)
H20A H 0.76440 0.18060 0.53020
H21A H 0.67540 0.18040 0.42610
C13A C 0.8602(4) 0.2711(4) 0.3387(4)
H22A H 0.91120 0.32750 0.36310
H23A H 0.93750 0.17450 0.32170
H24A H 0.82060 0.33100 0.25890
C8A C 0.4194(3) 0.2144(3) 0.1785(2)
C9A C 0.5862(4) 0.2038(4) 0.0839(4)
H11A H 0.66060 0.20010 0.13250
H12A H 0.62430 0.11180 0.04950
H13A H 0.57820 0.29300 0.01040
C10A C 0.4322(6) 0.0774(3) 0.2984(3)
H14A H 0.32870 0.08810 0.36000
H15A H 0.46560 -0.01670 0.26800
H16A H 0.51020 0.07430 0.34310
C11A C 0.3062(4) 0.2110(4) 0.1001(3)
H17A H 0.29840 0.29740 0.02400
H18A H 0.34850 0.11620 0.06940
H19A H 0.20090 0.21740 0.15770
#END

data_CSD_CIF_QOXSUR
_audit_creation_date 2001-08-28
_audit_creation_method CSD-ConQuest-V1
_database_code_CSD QOXSUR
_database_code_depnum_ccdc_archive 'CCDC 147136'
_chemical_formula_sum 'C54 H52 Bi2 Br8 O2 P2'
_chemical_formula_moiety
;
2(C24 H20 P1 1+),C6 H12 Bi2 Br8 O2 2-
;
_journal_coden_Cambridge 29
_journal_volume 627
_journal_year 2001
_journal_page_first 1365
_journal_name_full 'Z.Anorg.Allg.Chem. '
loop_
_publ_author_name
"I.A.Ahmed"
"R.Blachnik"
"H.Reuter"
"H.Eickmeier"
"D.Schultze"
"W.Brockner"
_chemical_name_systematic
;
bis(Tetraphenylphosphonium) 
bis(\m~2~-bromo)-hexabromo-bis(acetone)-di-bismuth(iii)
;
_chemical_melting_point 476.15
_cell_volume   3058.095
_exptl_crystal_colour 'light yellow'
_exptl_crystal_density_diffrn 2.011
_exptl_crystal_description 'plate'
_exptl_crystal_preparation 'n-hexane/acetone'
_diffrn_ambient_temperature ?
_diffrn_special_details
;
The study was carried out at room temperature,in the range 283-303K

;
#These two values have been output from a single CSD field.
_refine_ls_R_factor_gt 0.0442
_refine_ls_wR_factor_gt 0.0442
_symmetry_cell_setting monoclinic
_symmetry_space_group_name_H-M 'P 21/n'
_symmetry_Int_Tables_number 14
loop_
_symmetry_equiv_pos_site_id
_symmetry_equiv_pos_as_xyz
1 x,y,z
2 1/2+x,1/2-y,1/2+z
3 -x,-y,-z
4 -1/2-x,-1/2+y,-1/2-z
_cell_length_a 13.3578(16)
_cell_length_b 12.6369(16)
_cell_length_c 18.565(3)
_cell_angle_alpha 90
_cell_angle_beta 102.619(13)
_cell_angle_gamma 90
_cell_formula_units_Z 2
loop_
_atom_type_symbol
_atom_type_radius_bond
C 0.68
H 0.23
Bi 1.62
Br 1.21
O 0.68
P 1.05
loop_
_atom_site_label
_atom_site_type_symbol
_atom_site_fract_x
_atom_site_fract_y
_atom_site_fract_z
Bi1 Bi 0.66152(3) 0.49200(3) 0.06802(2)
Br1 Br 0.45925(10) 0.37381(9) 0.05219(6)
Br2 Br 0.72192(13) 0.36991(11) -0.03452(8)
Br3 Br 0.74074(13) 0.36703(11) 0.18769(7)
Br4 Br 0.82997(12) 0.61813(13) 0.08887(8)
C1 C 0.1493(9) 0.1778(8) 0.1008(6)
C2 C 0.0433(9) 0.1846(11) 0.0852(7)
H1 H 0.00430 0.12300 0.07710
C3 C -0.0042(12) 0.2787(11) 0.0814(8)
H2 H -0.07540 0.28230 0.07260
C4 C 0.0532(13) 0.3695(11) 0.0907(8)
H3 H 0.02020 0.43470 0.08690
C5 C 0.1578(11) 0.3663(10) 0.1055(8)
H4 H 0.19550 0.42880 0.11200
C6 C 0.2075(10) 0.2696(9) 0.1106(7)
H5 H 0.27870 0.26630 0.12060
C7 C 0.1490(9) -0.0409(9) 0.1481(6)
C8 C 0.1329(10) -0.0061(12) 0.2167(7)
H6 H 0.15070 0.06230 0.23320
C9 C 0.0899(13) -0.0761(15) 0.2593(9)
H7 H 0.07880 -0.05390 0.30470
C10 C 0.0642(13) -0.1750(17) 0.2362(11)
H8 H 0.03540 -0.22030 0.26560
C11 C 0.0796(12) -0.2090(12) 0.1712(10)
H9 H 0.06190 -0.27810 0.15660
C12 C 0.1216(11) -0.1438(11) 0.1247(9)
H10 H 0.13110 -0.16830 0.07940
C13 C 0.1997(8) 0.0131(9) 0.0023(6)
C14 C 0.240(1) -0.0838(9) -0.0124(8)
H11 H 0.27040 -0.12840 0.02600
C15 C 0.2342(11) -0.1127(12) -0.0842(8)
H12 H 0.25650 -0.17950 -0.09470
C16 C 0.1958(12) -0.0442(14) -0.1408(8)
H13 H 0.19680 -0.06280 -0.18910
C17 C 0.1555(11) 0.0531(13) -0.1262(7)
H14 H 0.12740 0.09850 -0.16470
C18 C 0.1576(10) 0.0818(11) -0.0541(7)
H15 H 0.13090 0.14660 -0.04370
C19 C 0.3442(8) 0.0564(8) 0.1388(6)
C20 C 0.4094(10) 0.1018(11) 0.0987(7)
H16 H 0.38380 0.12720 0.05120
C21 C 0.5155(9) 0.1092(11) 0.1310(8)
H17 H 0.56010 0.13900 0.10450
C22 C 0.5527(10) 0.0725(10) 0.2012(8)
H18 H 0.62220 0.07850 0.22280
C23 C 0.4880(11) 0.0275(11) 0.2391(7)
H19 H 0.51430 -0.00030 0.28570
C24 C 0.3841(10) 0.0221(10) 0.2101(7)
H20 H 0.34060 -0.00470 0.23850
P1 P 0.2102(2) 0.0508(2) 0.09746(16)
O1 O 0.586(1) 0.6183(9) 0.1602(6)
C25 C 0.5582(11) 0.7091(11) 0.1632(8)
C26 C 0.5847(17) 0.7948(13) 0.1185(10)
H21 H 0.62800 0.76810 0.08760
H22 H 0.62050 0.84910 0.15010
H23 H 0.52330 0.82370 0.08820
C27 C 0.4933(18) 0.7338(15) 0.2159(12)
H24 H 0.48290 0.67070 0.24220
H25 H 0.42820 0.76020 0.18950
H26 H 0.52650 0.78630 0.25030
Bi1B Bi 0.33848(3) 0.50800(3) -0.06802(2)
Br1B Br 0.54075(10) 0.62619(9) -0.05219(6)
Br2B Br 0.27808(13) 0.63009(11) 0.03452(8)
Br3B Br 0.25926(13) 0.63297(11) -0.18769(7)
Br4B Br 0.17003(12) 0.38187(13) -0.08887(8)
O1B O 0.414(1) 0.3817(9) -0.1602(6)
C25B C 0.4418(11) 0.2909(11) -0.1632(8)
C26B C 0.4153(17) 0.2052(13) -0.1185(10)
H21B H 0.37200 0.23190 -0.08760
H22B H 0.37950 0.15090 -0.15010
H23B H 0.47670 0.17630 -0.08820
C27B C 0.5067(18) 0.2662(15) -0.2159(12)
H24B H 0.51710 0.32930 -0.24220
H25B H 0.57180 0.23980 -0.18950
H26B H 0.47350 0.21370 -0.25030
#END

data_CSD_CIF_QUPLOC
_audit_creation_date 2002-02-05
_audit_creation_method CSD-ConQuest-V1
_database_code_CSD QUPLOC
_database_code_depnum_ccdc_archive 'CCDC 152835'
_chemical_formula_sum 'C75 H66 Bi2 Br9 O1 P3'
_chemical_formula_moiety
;
3(C24 H20 P1 1+),Bi2 Br9 3-,C3 H6 O1
;
_journal_coden_Cambridge 29
_journal_volume 627
_journal_year 2001
_journal_page_first 2261
_journal_name_full 'Z.Anorg.Allg.Chem. '
loop_
_publ_author_name
"I.A.Ahmed"
"R.Blachnik"
"G.Kastner"
"W.Brockner"
_chemical_name_systematic
;
tris(Tetraphenylphosphonium) tris(\m~2~-bromo)-hexabromo-di-bismuthate(iii) 
acetone solvate
;
_chemical_melting_point 509.15
_cell_volume   7757.736
_exptl_crystal_colour 'light yellow'
_exptl_crystal_density_diffrn 1.895
_exptl_crystal_description 'needle'
_exptl_crystal_preparation 'acetonitrile/acetone'
_diffrn_ambient_temperature 293
#These two values have been output from a single CSD field.
_refine_ls_R_factor_gt 0.0595
_refine_ls_wR_factor_gt 0.0595
_symmetry_cell_setting monoclinic
_symmetry_space_group_name_H-M 'P 21/n'
_symmetry_Int_Tables_number 14
loop_
_symmetry_equiv_pos_site_id
_symmetry_equiv_pos_as_xyz
1 x,y,z
2 1/2+x,1/2-y,1/2+z
3 -x,-y,-z
4 -1/2-x,-1/2+y,-1/2-z
_cell_length_a 12.341(12)
_cell_length_b 32.005(3)
_cell_length_c 19.929(3)
_cell_angle_alpha 90
_cell_angle_beta 99.75(2)
_cell_angle_gamma 90
_cell_formula_units_Z 4
loop_
_atom_type_symbol
_atom_type_radius_bond
C 0.68
H 0.23
Bi 1.54
Br 1.21
O 0.68
P 1.05
loop_
_atom_site_label
_atom_site_type_symbol
_atom_site_fract_x
_atom_site_fract_y
_atom_site_fract_z
Bi1 Bi 0.56488(6) 0.15117(3) 0.09755(4)
Bi2 Bi 0.51530(6) 0.09452(2) 0.27077(4)
Br1 Br 0.48651(18) 0.18439(7) 0.22655(11)
Br2 Br 0.42264(18) 0.07946(7) 0.12274(11)
Br3 Br 0.30613(17) 0.09045(8) 0.29809(11)
Br4 Br 0.72265(16) 0.10424(7) 0.21030(11)
Br5 Br 0.38926(18) 0.18336(8) 0.01215(11)
Br6 Br 0.55007(19) 0.00990(7) 0.29293(13)
Br7 Br 0.5980(2) 0.11415(9) 0.40438(12)
Br8 Br 0.63640(19) 0.11215(8) -0.00732(12)
Br9 Br 0.7000(2) 0.21929(8) 0.09078(16)
P1 P 0.9337(4) 0.08487(18) 0.5671(3)
P2 P 0.0892(5) 0.25229(18) 0.3047(3)
P3 P 0.9597(4) 0.91922(17) 0.0732(3)
C1 C 0.8408(17) 0.9494(6) 0.0738(10)
C2 C 1.0765(14) 0.9481(8) 0.1126(10)
C3 C 1.0785(19) 0.9666(7) 0.1777(10)
H1 H 1.01840 0.96360 0.19980
C4 C 1.2584(18) 0.9771(9) 0.1128(13)
H2 H 1.31860 0.98120 0.09100
C5 C 0.8475(19) 0.9928(8) 0.0847(11)
H3 H 0.91600 1.00560 0.08950
C6 C 1.1685(19) 0.9545(7) 0.0826(10)
H4 H 1.16950 0.94290 0.03990
C7 C 1.256(2) 0.9934(7) 0.1762(13)
H5 H 1.31670 1.00810 0.19820
C8 C 1.0346(16) 0.0647(7) 0.6329(10)
C9 C 0.9171(17) 0.1058(6) 0.4325(12)
H6 H 0.85010 0.11750 0.43760
C10 C 1.0913(19) 0.0892(8) 0.6848(11)
H7 H 1.07600 0.11770 0.68510
C11 C 0.9552(19) 0.1080(7) 0.3701(11)
H8 H 0.91470 0.12190 0.33320
C12 C 0.9847(17) 0.0849(7) 0.4882(10)
C13 C 0.1858(17) 0.2035(7) 0.2111(11)
H9 H 0.23480 0.19260 0.24740
C14 C 0.8179(15) 0.0522(6) 0.5602(9)
C15 C 0.7730(18) 0.0423(7) 0.6188(10)
H10 H 0.80490 0.05360 0.66050
C16 C 0.8968(16) 0.1382(7) 0.5847(9)
C17 C 0.7923(18) 0.1481(8) 0.5921(11)
H11 H 0.73830 0.12760 0.58810
C18 C 0.9789(18) 0.1677(7) 0.5903(12)
H12 H 1.04950 0.16070 0.58380
C19 C 0.9733(15) 0.9049(7) -0.0123(10)
C20 C 1.0548(17) 0.8797(6) -0.0234(10)
H13 H 1.09870 0.86690 0.01340
C21 C 0.9031(18) 0.9231(7) -0.0677(10)
H14 H 0.84940 0.94210 -0.06050
C22 C 0.6354(18) 0.0001(7) 0.5566(15)
H15 H 0.57380 -0.01680 0.55560
C23 C 0.6861(19) 0.0173(7) 0.6161(14)
H16 H 0.65940 0.01140 0.65600
C24 C 0.187(2) 0.1915(10) 0.1467(18)
H17 H 0.24050 0.17250 0.13890
C25 C 0.113(3) 0.2058(9) 0.0910(14)
H18 H 0.11620 0.19720 0.04680
C26 C -0.033(2) 0.2289(8) 0.4001(13)
H19 H 0.02890 0.23580 0.43170
C27 C 0.850(2) 0.2189(7) 0.6131(11)
H20 H 0.83460 0.24640 0.62320
C28 C 0.767(2) 0.1894(8) 0.6056(13)
H21 H 0.69540 0.19700 0.60940
C29 C 1.1906(18) 0.0324(13) 0.7342(13)
H22 H 1.24570 0.02200 0.76760
C30 C 0.029(2) 0.2487(7) 0.1676(10)
H23 H -0.02460 0.26810 0.17400
C31 C 1.0595(19) 0.0216(10) 0.6350(13)
H24 H 1.02350 0.00400 0.60120
C32 C 0.7349(18) 0.9320(9) 0.0629(13)
H25 H 0.72450 0.90340 0.05610
C33 C 0.952(2) 0.2089(9) 0.6064(13)
H26 H 1.00650 0.22930 0.61230
C34 C 0.385(3) 0.2582(13) 0.4241(16)
H27 H 0.43440 0.27900 0.44130
C35 C 0.133(2) 0.3320(9) 0.2623(14)
H28 H 0.18390 0.31870 0.24000
C36 C -0.1160(17) 0.2166(7) 0.2856(12)
H29 H -0.11160 0.21510 0.23950
C37 C 0.035(3) 0.2336(11) 0.1057(16)
H30 H -0.01760 0.24260 0.06960
C38 C -0.0290(18) 0.2293(7) 0.330(1)
C39 C 0.2093(16) 0.2388(8) 0.3627(10)
C40 C 0.9548(16) 0.8719(7) 0.1215(10)
C41 C 1.0319(17) 0.8629(7) 0.1770(11)
H31 H 1.08960 0.88120 0.19110
C42 C 1.0849(15) 0.0705(6) 0.4796(12)
H32 H 1.13110 0.05810 0.51570
C43 C 0.0713(19) 0.3078(7) 0.3001(11)
C44 C 0.1042(19) 0.2343(8) 0.221(1)
C45 C 1.0513(18) 0.0895(9) 0.3645(11)
H33 H 1.07060 0.08740 0.32150
C46 C 1.1188(19) 0.0744(8) 0.4164(14)
H34 H 1.18930 0.06630 0.41140
C47 C 0.8737(18) 0.8431(7) 0.0988(12)
H35 H 0.82200 0.84870 0.06020
C48 C 1.168(2) 0.9887(7) 0.2076(12)
H36 H 1.16840 1.00060 0.25020
C49 C 0.287(2) 0.2683(11) 0.3868(13)
H37 H 0.27200 0.29630 0.37670
C50 C 0.237(3) 0.1978(10) 0.3774(13)
H38 H 0.18590 0.17710 0.36090
C51 C 1.0761(19) 0.8718(10) -0.0914(14)
H39 H 1.13690 0.85650 -0.09880
C52 C 0.657(2) 1.0009(8) 0.0763(11)
H40 H 0.59660 1.01810 0.07730
C53 C 0.7660(17) 0.0330(8) 0.4984(12)
H41 H 0.79380 0.03750 0.45850
C54 C 0.6441(19) 0.9593(9) 0.0624(13)
H42 H 0.57330 0.94840 0.05220
C55 C 0.916(2) 0.9120(9) -0.1320(12)
H43 H 0.86480 0.92070 -0.16920
C56 C 0.759(2) 1.0162(9) 0.0884(13)
H44 H 0.76940 1.04420 0.09990
C57 C 0.6770(19) 0.0082(9) 0.4971(16)
H45 H 0.64320 -0.00350 0.45610
C58 C 1.023(2) 0.8257(10) 0.2124(13)
H46 H 1.07540 0.82040 0.25100
C59 C 0.943(3) 0.7964(10) 0.1938(15)
H47 H 0.93710 0.77230 0.21900
C60 C 0.869(2) 0.8056(8) 0.1335(17)
H48 H 0.81560 0.78600 0.11640
C61 C 0.335(3) 0.1859(10) 0.4154(14)
H49 H 0.35000 0.15800 0.42600
O1 O 0.997(3) 0.3419(11) 0.0933(18)
C62 C 0.411(2) 0.2157(14) 0.4371(16)
H50 H 0.47950 0.20820 0.46060
C63 C 0.920(4) 0.3660(14) 0.091(2)
C64 C 0.821(4) 0.3477(19) 0.109(3)
H51 H 0.83710 0.31980 0.12560
H52 H 0.76450 0.34710 0.06990
H53 H 0.79760 0.36420 0.14420
C65 C -0.006(2) 0.3268(7) 0.3283(12)
H54 H -0.05100 0.31050 0.35080
C66 C -0.023(3) 0.3707(9) 0.3254(16)
H55 H -0.07390 0.38400 0.34720
C67 C 0.123(3) 0.3735(11) 0.2569(17)
H56 H 0.16670 0.38950 0.23340
C68 C 0.042(4) 0.3913(10) 0.2888(17)
H57 H 0.03140 0.42000 0.28420
C69 C 0.924(5) 0.4071(18) 0.067(3)
H58 H 0.99710 0.41280 0.05860
H59 H 0.90630 0.42620 0.10060
H60 H 0.87250 0.41030 0.02560
C70 C 1.007(2) 0.8872(8) -0.1418(13)
H61 H 1.01730 0.88160 -0.18600
C71 C 1.136(2) 0.0053(7) 0.6862(14)
C72 C 1.167(2) 0.0735(11) 0.7343(14)
H62 H 1.20270 0.09070 0.76860
H63 H 1.191(10) -0.025(4) 0.687(6)
C73 C -0.2116(18) 0.2056(7) 0.3072(13)
H64 H -0.27160 0.19780 0.27480
C74 C -0.132(3) 0.2177(6) 0.4219(13)
H65 H -0.13700 0.21840 0.46800
C75 C -0.223(2) 0.2057(10) 0.3742(15)
H66 H -0.28900 0.19800 0.38750
#END

data_CSD_CIF_QUPMAP
_audit_creation_date 2002-02-05
_audit_creation_method CSD-ConQuest-V1
_database_code_CSD QUPMAP
_database_code_depnum_ccdc_archive 'CCDC 152837'
_chemical_formula_sum 'C96 H80 Bi6 Br22 P4'
_chemical_formula_moiety
;
4(C24 H20 P1 1+),Bi6 Br22 4-
;
_journal_coden_Cambridge 29
_journal_volume 627
_journal_year 2001
_journal_page_first 2261
_journal_name_full 'Z.Anorg.Allg.Chem. '
loop_
_publ_author_name
"I.A.Ahmed"
"R.Blachnik"
"G.Kastner"
"W.Brockner"
_chemical_name_systematic
;
tetrakis(Tetraphenylphosphonium) 
tetrakis(\m~3~-bromo)-hexakis(\m~2~-bromo)-dodecabromo-hexa-bismuthate(iii)
;
_cell_volume   3132.676
_exptl_crystal_colour 'yellow'
_exptl_crystal_density_diffrn 2.316
_exptl_special_details
;
alpha polymorph
phase transition at 183.9 deg.C

;
_exptl_crystal_description 'plate'
_exptl_crystal_preparation 'n-hexane/acetone'
_diffrn_ambient_temperature 293
#These two values have been output from a single CSD field.
_refine_ls_R_factor_gt 0.061
_refine_ls_wR_factor_gt 0.061
_symmetry_cell_setting triclinic
_symmetry_space_group_name_H-M 'P -1'
_symmetry_Int_Tables_number 2
loop_
_symmetry_equiv_pos_site_id
_symmetry_equiv_pos_as_xyz
1 x,y,z
2 -x,-y,-z
_cell_length_a 13.507(4)
_cell_length_b 14.434(4)
_cell_length_c 17.709(5)
_cell_angle_alpha 81.342(15)
_cell_angle_beta 72.42(2)
_cell_angle_gamma 72.53(2)
_cell_formula_units_Z 1
loop_
_atom_type_symbol
_atom_type_radius_bond
C 0.68
H 0.23
Bi 1.72
Br 1.21
P 1.05
loop_
_atom_site_label
_atom_site_type_symbol
_atom_site_fract_x
_atom_site_fract_y
_atom_site_fract_z
Bi1 Bi 0.07133(8) 1.02818(8) 0.27381(6)
Bi2 Bi -0.04641(7) 0.85671(7) 0.49330(5)
Bi3 Bi 0.20299(9) 1.29648(8) 0.26983(6)
Br1 Br 0.1715(3) 0.8620(2) 0.20553(19)
Br2 Br 0.0486(2) 0.6995(2) 0.4139(2)
Br3 Br 0.1555(4) 1.4716(3) 0.3201(2)
Br4 Br 0.2546(2) 1.0872(2) 0.20779(19)
Br5 Br -0.0279(3) 1.1111(3) 0.1625(2)
Br6 Br 0.14653(19) 0.93919(19) 0.42819(15)
Br7 Br -0.1258(2) 0.9559(2) 0.36454(17)
Br8 Br -0.0210(2) 1.2296(2) 0.36153(17)
Br9 Br 0.2355(2) 1.1970(2) 0.44126(16)
Br10 Br 0.1564(4) 1.3657(3) 0.1336(2)
Br11 Br 0.4134(3) 1.2749(3) 0.2172(3)
P1 P 0.6518(5) 0.4663(5) 0.3125(4)
C1 C 0.5319(19) 0.562(2) 0.3221(15)
C2 C 0.451(2) 0.554(2) 0.2936(17)
H1 H 0.45910 0.49820 0.26910
C3 C 0.356(3) 0.632(3) 0.3025(18)
H2 H 0.30100 0.62820 0.28210
C4 C 0.343(3) 0.712(2) 0.3406(19)
H3 H 0.27800 0.75990 0.34850
C5 C 0.425(3) 0.722(2) 0.368(2)
H4 H 0.41680 0.77800 0.39180
C6 C 0.516(2) 0.648(2) 0.3577(17)
H5 H 0.57230 0.65440 0.37520
C7 C 0.7281(19) 0.4618(19) 0.2076(16)
C8 C 0.681(2) 0.521(2) 0.1524(17)
H6 H 0.61390 0.56500 0.16730
C9 C 0.742(3) 0.510(3) 0.0703(18)
H7 H 0.71400 0.55030 0.03100
C10 C 0.838(3) 0.443(3) 0.050(2)
H8 H 0.87410 0.43420 -0.00330
C11 C 0.882(2) 0.387(2) 0.109(2)
H9 H 0.95060 0.34450 0.09340
C12 C 0.829(3) 0.392(2) 0.189(2)
H10 H 0.85770 0.35210 0.22720
C13 C 0.7303(18) 0.4906(18) 0.3689(15)
C14 C 0.800(2) 0.547(3) 0.3340(18)
H11 H 0.81550 0.56410 0.27980
C15 C 0.847(3) 0.577(3) 0.382(2)
H12 H 0.88730 0.62190 0.36120
C16 C 0.837(3) 0.543(3) 0.457(2)
H13 H 0.87690 0.55840 0.48520
C17 C 0.772(3) 0.489(3) 0.4917(19)
H14 H 0.76080 0.47060 0.54560
C18 C 0.716(3) 0.458(3) 0.4440(19)
H15 H 0.67190 0.41670 0.46640
C19 C 0.616(2) 0.357(2) 0.3467(16)
C20 C 0.520(3) 0.358(2) 0.404(2)
H16 H 0.47510 0.41550 0.42690
C21 C 0.492(5) 0.267(5) 0.426(3)
H17 H 0.42540 0.26760 0.46160
C22 C 0.553(5) 0.186(3) 0.400(3)
H18 H 0.53540 0.12810 0.42120
C23 C 0.637(4) 0.186(4) 0.345(2)
H19 H 0.67470 0.12770 0.32050
C24 C 0.679(3) 0.270(2) 0.316(2)
H20 H 0.74510 0.26530 0.27900
P2 P 0.6990(5) 0.8976(6) 0.1512(4)
C25 C 0.739(2) 0.999(2) 0.1095(15)
C26 C 0.684(3) 1.094(3) 0.135(2)
H21 H 0.62570 1.10210 0.18030
C27 C 0.715(3) 1.172(3) 0.097(2)
H22 H 0.67840 1.23320 0.11590
C28 C 0.802(3) 1.163(4) 0.027(2)
H23 H 0.82260 1.21740 0.00000
C29 C 0.853(3) 1.078(3) 0.001(2)
H24 H 0.90900 1.07360 -0.04580
C30 C 0.830(3) 0.993(3) 0.0381(16)
H25 H 0.87160 0.93320 0.01830
C31 C 0.8171(19) 0.802(2) 0.1495(15)
C32 C 0.832(2) 0.712(3) 0.1247(18)
H26 H 0.77960 0.70300 0.10490
C33 C 0.916(3) 0.638(2) 0.1272(18)
H27 H 0.92410 0.57960 0.10640
C34 C 0.996(3) 0.646(3) 0.162(2)
H28 H 1.05370 0.59410 0.16820
C35 C 0.981(2) 0.733(3) 0.185(2)
H29 H 1.03370 0.74180 0.20530
C36 C 0.898(2) 0.809(2) 0.1818(19)
H30 H 0.89220 0.86740 0.20100
C37 C 0.620(2) 0.867(2) 0.1010(17)
C38 C 0.551(3) 0.809(3) 0.1413(19)
H31 H 0.54700 0.78890 0.19430
C39 C 0.489(3) 0.782(3) 0.103(2)
H32 H 0.44380 0.74370 0.13050
C40 C 0.492(3) 0.811(3) 0.026(2)
H33 H 0.44230 0.80220 0.00260
C41 C 0.577(4) 0.857(4) -0.018(3)
H34 H 0.59650 0.86220 -0.07370
C42 C 0.629(3) 0.892(3) 0.0220(19)
H35 H 0.67100 0.93320 -0.00480
C43 C 0.621(2) 0.918(2) 0.2506(15)
C44 C 0.659(2) 0.878(2) 0.3167(16)
H36 H 0.72910 0.83880 0.30950
C45 C 0.594(3) 0.895(3) 0.3910(18)
H37 H 0.62150 0.87240 0.43470
C46 C 0.490(4) 0.946(3) 0.4011(18)
H38 H 0.44510 0.95370 0.45250
C47 C 0.447(2) 0.988(2) 0.3396(18)
H39 H 0.37590 1.02570 0.34810
C48 C 0.512(2) 0.971(2) 0.2662(18)
H40 H 0.48400 0.99660 0.22330
Br6A Br -0.14653(19) 1.06081(19) 0.57181(15)
Bi1A Bi -0.07133(8) 0.97182(8) 0.72619(6)
Br1A Br -0.1715(3) 1.1380(2) 0.79447(19)
Br4A Br -0.2546(2) 0.9128(2) 0.79221(19)
Bi3A Bi -0.20299(9) 0.70352(8) 0.73017(6)
Br3A Br -0.1555(4) 0.5284(3) 0.6799(2)
Br8A Br 0.0210(2) 0.7704(2) 0.63847(17)
Br5A Br 0.0279(3) 0.8889(3) 0.8375(2)
Br7A Br 0.1258(2) 1.0441(2) 0.63546(17)
Bi2A Bi 0.04641(7) 1.14329(7) 0.50670(5)
Br2A Br -0.0486(2) 1.3005(2) 0.5861(2)
Br9A Br -0.2355(2) 0.8030(2) 0.55874(16)
Br10A Br -0.1564(4) 0.6343(3) 0.8664(2)
Br11A Br -0.4134(3) 0.7251(3) 0.7828(3)
#END

data_CSD_CIF_QUPMAP01
_audit_creation_date 2002-02-05
_audit_creation_method CSD-ConQuest-V1
_database_code_CSD QUPMAP01
_database_code_depnum_ccdc_archive 'CCDC 152836'
_chemical_formula_sum 'C96 H80 Bi6 Br22 P4'
_chemical_formula_moiety
;
4(C24 H20 P1 1+),Bi6 Br22 4-
;
_journal_coden_Cambridge 29
_journal_volume 627
_journal_year 2001
_journal_page_first 2261
_journal_name_full 'Z.Anorg.Allg.Chem. '
loop_
_publ_author_name
"I.A.Ahmed"
"R.Blachnik"
"G.Kastner"
"W.Brockner"
_chemical_name_systematic
;
tetrakis(Tetraphenylphosphonium) 
tetrakis(\m~3~-bromo)-hexakis(\m~2~-bromo)-dodecabromo-hexa-bismuthate(iii)
;
_cell_volume   2985.410
_exptl_crystal_colour 'deep yellow'
_exptl_crystal_density_diffrn 2.43
_exptl_special_details
;
high temperature beta polymorph

;
_exptl_crystal_description 'needle'
_exptl_crystal_preparation 'acetonitrile'
_diffrn_ambient_temperature 293
#These two values have been output from a single CSD field.
_refine_ls_R_factor_gt 0.0719
_refine_ls_wR_factor_gt 0.0719
_symmetry_cell_setting triclinic
_symmetry_space_group_name_H-M 'P -1'
_symmetry_Int_Tables_number 2
loop_
_symmetry_equiv_pos_site_id
_symmetry_equiv_pos_as_xyz
1 x,y,z
2 -x,-y,-z
_cell_length_a 13.893(4)
_cell_length_b 14.267(3)
_cell_length_c 16.580(3)
_cell_angle_alpha 100.127(15)
_cell_angle_beta 96.56(2)
_cell_angle_gamma 110.006(18)
_cell_formula_units_Z 1
loop_
_atom_type_symbol
_atom_type_radius_bond
C 0.68
H 0.23
Bi 1.65
Br 1.21
P 1.05
loop_
_atom_site_label
_atom_site_type_symbol
_atom_site_fract_x
_atom_site_fract_y
_atom_site_fract_z
Bi1 Bi 0.91905(7) 0.40508(7) 0.25505(5)
Bi2 Bi 0.85480(7) 0.54840(6) 0.49389(5)
Bi3 Bi 1.19760(7) 0.29653(7) 0.25988(6)
Br1 Br 0.89820(18) 0.36045(17) 0.43268(15)
Br2 Br 1.1605(3) 0.1017(2) 0.1905(2)
Br3 Br 1.3982(3) 0.3396(3) 0.3087(3)
Br4 Br 1.1616(2) 0.50360(18) 0.34312(16)
Br5 Br 0.8875(3) 0.5986(2) 0.33830(17)
Br6 Br 0.8438(2) 0.7382(2) 0.55669(17)
Br7 Br 1.2275(2) 0.3743(2) 0.12636(19)
Br8 Br 0.9637(3) 0.4769(3) 0.1214(2)
Br9 Br 0.9483(2) 0.2241(2) 0.2098(2)
Br10 Br 0.6550(2) 0.4514(2) 0.4394(2)
Br11 Br 0.7162(2) 0.3072(2) 0.19242(19)
P1 P 0.6072(5) 0.1612(5) 0.6945(4)
C1 C 0.5483(19) 0.2301(17) 0.6383(16)
C2 C 0.502(3) 0.186(3) 0.554(2)
H1 H 0.50590 0.12440 0.52720
C3 C 0.449(3) 0.239(3) 0.511(2)
H2 H 0.41520 0.20890 0.45560
C4 C 0.448(2) 0.327(2) 0.547(3)
H3 H 0.41640 0.36140 0.51630
C5 C 0.492(3) 0.371(2) 0.631(2)
H4 H 0.48910 0.43230 0.65740
C6 C 0.542(2) 0.320(2) 0.6755(17)
H5 H 0.57160 0.34870 0.73160
C7 C 0.648(2) 0.227(2) 0.8015(17)
C8 C 0.7293(16) 0.3169(18) 0.8289(17)
H6 H 0.76510 0.34580 0.78970
C9 C 0.762(2) 0.367(2) 0.9099(18)
H7 H 0.82020 0.42820 0.92510
C10 C 0.713(2) 0.332(3) 0.9663(17)
H8 H 0.73360 0.36940 1.02140
C11 C 0.627(2) 0.236(2) 0.9444(16)
H9 H 0.59550 0.20910 0.98580
C12 C 0.5911(19) 0.184(2) 0.8611(16)
H10 H 0.53290 0.12290 0.84510
C13 C 0.7226(19) 0.1545(17) 0.6636(16)
C14 C 0.752(3) 0.185(3) 0.590(3)
H11 H 0.71090 0.20720 0.55510
C15 C 0.846(3) 0.179(3) 0.572(2)
H12 H 0.87040 0.20530 0.52750
C16 C 0.904(2) 0.1394(19) 0.6112(19)
H13 H 0.96180 0.13190 0.59200
C17 C 0.877(4) 0.111(5) 0.679(4)
H14 H 0.91110 0.07690 0.70750
C18 C 0.795(4) 0.134(5) 0.707(2)
H15 H 0.79060 0.13570 0.76290
C19 C 0.512(2) 0.0353(19) 0.6826(15)
C20 C 0.415(3) 0.015(3) 0.669(3)
H16 H 0.39340 0.06960 0.66770
C21 C 0.340(3) -0.080(3) 0.657(3)
H17 H 0.27010 -0.08730 0.64780
C22 C 0.365(3) -0.165(2) 0.6582(19)
H18 H 0.31530 -0.23160 0.64790
C23 C 0.469(3) -0.143(2) 0.676(3)
H19 H 0.49110 -0.19660 0.67960
C24 C 0.544(3) -0.047(2) 0.689(2)
H20 H 0.61440 -0.03590 0.70110
P2 P 0.7703(5) 0.8025(5) 1.1309(4)
C25 C 0.6788(18) 0.6785(17) 1.1243(17)
C26 C 0.574(3) 0.656(2) 1.103(2)
H21 H 0.55430 0.70610 1.08610
C27 C 0.496(2) 0.566(2) 1.105(2)
H22 H 0.42590 0.55720 1.09030
C28 C 0.523(2) 0.493(2) 1.127(3)
H23 H 0.47300 0.43250 1.13240
C29 C 0.624(4) 0.510(2) 1.142(5)
H24 H 0.64470 0.45790 1.15310
C30 C 0.699(3) 0.602(3) 1.140(5)
H25 H 0.76860 0.60840 1.15190
C31 C 0.8890(19) 0.8043(19) 1.0917(14)
C32 C 0.924(2) 0.859(2) 1.033(2)
H26 H 0.88560 0.89280 1.00930
C33 C 1.016(3) 0.8633(19) 1.010(2)
H27 H 1.04340 0.90720 0.97570
C34 C 1.070(3) 0.803(3) 1.035(3)
H28 H 1.13170 0.80380 1.01830
C35 C 1.025(4) 0.748(4) 1.083(5)
H29 H 1.05580 0.70330 1.09870
C36 C 0.938(3) 0.746(4) 1.116(4)
H30 H 0.91360 0.70490 1.15260
C37 C 0.7125(19) 0.8699(19) 1.0711(18)
C38 C 0.706(2) 0.963(2) 1.110(2)
H31 H 0.73360 0.99270 1.16670
C39 C 0.656(3) 1.009(2) 1.059(3)
H32 H 0.64470 1.06700 1.08240
C40 C 0.625(3) 0.968(3) 0.976(2)
H33 H 0.60110 1.00550 0.94340
C41 C 0.625(2) 0.875(3) 0.938(2)
H34 H 0.59660 0.84470 0.88170
C42 C 0.673(3) 0.827(2) 0.9892(19)
H35 H 0.67720 0.76480 0.96590
C43 C 0.821(3) 0.8719(19) 1.2445(18)
C44 C 0.759(2) 0.818(2) 1.297(2)
H36 H 0.70330 0.75540 1.27890
C45 C 0.795(2) 0.871(3) 1.3794(19)
H37 H 0.76570 0.84100 1.42070
C46 C 0.869(3) 0.961(3) 1.401(2)
H38 H 0.88730 0.99480 1.45690
C47 C 0.922(3) 1.008(2) 1.345(3)
H39 H 0.97610 1.07130 1.36200
C48 C 0.890(2) 0.957(2) 1.264(2)
H40 H 0.92090 0.98710 1.22330
Br1A Br 1.10180(18) 0.63955(17) 0.56732(15)
Bi1A Bi 1.08095(7) 0.59492(7) 0.74495(5)
Br4A Br 0.8384(2) 0.49640(18) 0.65688(16)
Bi2A Bi 1.14520(7) 0.45160(6) 0.50611(5)
Br5A Br 1.1125(3) 0.4014(2) 0.66170(17)
Br8A Br 1.0363(3) 0.5231(3) 0.8786(2)
Br9A Br 1.0517(2) 0.7759(2) 0.7902(2)
Bi3A Bi 0.80240(7) 0.70347(7) 0.74012(6)
Br2A Br 0.8395(3) 0.8983(2) 0.8095(2)
Br3A Br 0.6018(3) 0.6604(3) 0.6913(3)
Br7A Br 0.7725(2) 0.6257(2) 0.87364(19)
Br11A Br 1.2838(2) 0.6928(2) 0.80758(19)
Br6A Br 1.1562(2) 0.2618(2) 0.44331(17)
Br10A Br 1.3450(2) 0.5486(2) 0.5606(2)
#END

data_CSD_CIF_ROHREL
_audit_creation_date 2001-11-22
_audit_creation_method CSD-ConQuest-V1
_database_code_CSD ROHREL
_database_code_depnum_ccdc_archive 'CCDC 156412'
_chemical_formula_sum 'C74 H64 Bi2 Cl13 P3'
_chemical_formula_moiety
;
3(C24 H20 P1 1+),Bi2 Cl9 3-,2(C1 H2 Cl2)
;
_journal_coden_Cambridge 29
_journal_volume 627
_journal_year 2001
_journal_page_first 2057
_journal_name_full 'Z.Anorg.Allg.Chem. '
loop_
_publ_author_name
"I.A.Ahmed"
"R.Blachnik"
"H.Reuter"
_chemical_name_systematic
;
tris(Tetraphenylphosphonium) tris(\m~2~-chloro)-hexachloro-di-bismuth 
dichloromethane solvate
;
_chemical_melting_point 515.95
_cell_volume   3943.938
_exptl_crystal_colour 'colorless'
_exptl_crystal_density_diffrn 1.621
_exptl_crystal_description 'needle'
_exptl_crystal_preparation 'dichloromethane/n-hexane'
_diffrn_ambient_temperature 293
#These two values have been output from a single CSD field.
_refine_ls_R_factor_gt 0.066
_refine_ls_wR_factor_gt 0.066
_symmetry_cell_setting triclinic
_symmetry_space_group_name_H-M 'P -1'
_symmetry_Int_Tables_number 2
loop_
_symmetry_equiv_pos_site_id
_symmetry_equiv_pos_as_xyz
1 x,y,z
2 -x,-y,-z
_cell_length_a 13.080(3)
_cell_length_b 14.369(3)
_cell_length_c 21.397(4)
_cell_angle_alpha 96.830(12)
_cell_angle_beta 95.959(14)
_cell_angle_gamma 95.943(15)
_cell_formula_units_Z 2
loop_
_atom_type_symbol
_atom_type_radius_bond
C 0.68
H 0.23
Bi 1.61
Cl 0.99
P 1.05
loop_
_atom_site_label
_atom_site_type_symbol
_atom_site_fract_x
_atom_site_fract_y
_atom_site_fract_z
Bi1 Bi 0.16582(5) 0.22334(4) 0.32021(3)
Bi2 Bi 0.28947(5) 0.40607(4) 0.22167(3)
Cl1 Cl 0.2814(5) 0.1067(4) 0.3629(3)
Cl2 Cl 0.0109(4) 0.0914(4) 0.2793(2)
Cl3 Cl 0.0850(3) 0.2605(3) 0.4252(2)
Cl4 Cl 0.2538(4) 0.2037(3) 0.2042(2)
Cl5 Cl 0.3358(3) 0.3654(4) 0.3514(2)
Cl6 Cl 0.0873(3) 0.3855(3) 0.2616(2)
Cl7 Cl 0.4806(4) 0.4059(4) 0.2005(2)
Cl8 Cl 0.2275(5) 0.4027(4) 0.1032(2)
Cl9 Cl 0.3069(4) 0.5900(3) 0.2509(3)
P1 P 0.1691(3) 0.7466(3) 0.0414(2)
P2 P 0.7564(3) 0.5980(3) 0.2971(2)
P3 P 0.6981(4) 0.1935(3) 0.4896(2)
C1 C 0.6845(14) 0.6333(12) 0.2292(8)
C2 C 0.2273(13) 0.8293(12) 0.1068(8)
C3 C 0.6083(14) 0.1732(12) 0.5462(8)
C4 C 0.0763(13) 0.6662(11) 0.0680(7)
C5 C 0.7782(12) 0.4780(11) 0.2851(7)
C6 C 0.1021(15) 0.6261(13) 0.1226(9)
H1 H 0.16590 0.64540 0.14650
C7 C 0.7842(16) 0.3279(15) 0.2214(10)
H2 H 0.76900 0.28780 0.18340
C8 C 0.7581(13) 0.4239(12) 0.2241(8)
H3 H 0.73020 0.44830 0.18860
C9 C 0.6802(18) 0.6748(16) 0.4743(11)
H4 H 0.70880 0.71300 0.51140
C10 C 0.5455(15) 0.5618(13) 0.4192(8)
H5 H 0.48350 0.52350 0.41870
C11 C 0.6822(19) 0.6672(17) 0.1227(11)
H6 H 0.71650 0.67290 0.08710
C12 C 0.8280(14) 0.0878(14) 0.4272(9)
H7 H 0.82380 0.13130 0.39840
C13 C 0.5685(16) 0.2878(15) 0.3324(10)
H8 H 0.56040 0.34560 0.31830
C14 C 0.7756(12) 0.0967(11) 0.4784(7)
C15 C 0.6316(14) 0.2013(13) 0.4146(8)
C16 C 0.6192(15) 0.2858(15) 0.3917(9)
H9 H 0.64550 0.34220 0.41680
C17 C 0.5308(16) 0.2081(15) 0.2948(10)
H10 H 0.49680 0.21130 0.25480
C18 C 0.8872(17) 0.0152(15) 0.4175(10)
H11 H 0.92370 0.01020 0.38240
C19 C 0.7822(14) 0.0329(13) 0.5217(9)
H12 H 0.74820 0.03980 0.55780
C20 C 0.8238(14) 0.4391(13) 0.3379(9)
H13 H 0.83710 0.47470 0.37770
C21 C 0.8482(15) 0.3466(13) 0.3289(9)
H14 H 0.87780 0.32060 0.36320
C22 C 0.7329(16) 0.6432(14) 0.1759(9)
H15 H 0.80210 0.63310 0.17630
C23 C 0.1640(17) 0.8705(14) 0.1484(9)
H16 H 0.09360 0.84980 0.14470
C24 C 0.8302(16) 0.2951(15) 0.2727(9)
H17 H 0.84970 0.23440 0.26820
C25 C 0.2672(13) 0.6855(12) 0.0065(8)
C26 C 0.7326(16) 0.6723(14) 0.4208(9)
H18 H 0.79520 0.70990 0.42190
C27 C -0.0594(19) 0.5328(17) 0.1060(11)
H19 H -0.10470 0.48630 0.11860
C28 C -0.089(2) 0.5713(17) 0.0546(11)
H20 H -0.15390 0.55350 0.03210
C29 C 0.541(2) 0.120(2) 0.3144(12)
H21 H 0.51640 0.06480 0.28790
C30 C 0.5919(18) 0.1182(17) 0.3762(11)
H22 H 0.59830 0.06060 0.39100
C31 C 0.5959(14) 0.5578(13) 0.3651(9)
H23 H 0.56660 0.51830 0.32870
C32 C -0.0195(16) 0.6389(14) 0.0353(10)
H24 H -0.03880 0.66620 -0.00070
C33 C 0.6912(12) 0.6131(11) 0.3652(7)
C34 C 0.5843(16) 0.6199(14) 0.4724(9)
H25 H 0.54800 0.62370 0.50750
C35 C 0.0635(15) 0.7571(14) -0.0768(9)
H26 H 0.06390 0.69200 -0.08430
C36 C 0.1105(13) 0.8056(12) -0.0177(8)
C37 C 0.3924(18) 0.6758(16) -0.0683(11)
H27 H 0.42800 0.70080 -0.09910
C38 C 0.0640(18) 0.9462(18) -0.0593(11)
H28 H 0.06550 1.01160 -0.05500
C39 C 0.1111(16) 0.9020(15) -0.0104(10)
H29 H 0.14270 0.93810 0.02690
C40 C 0.4119(18) 0.5933(16) -0.0497(11)
H30 H 0.45810 0.55900 -0.07020
C41 C 0.0358(16) 0.5593(15) 0.1415(10)
H31 H 0.05390 0.53180 0.17760
C42 C 0.9720(13) 0.6306(13) 0.3050(8)
H32 H 0.96890 0.56540 0.30280
C43 C 0.9734(18) 0.8224(17) 0.310(1)
H33 H 0.97490 0.88760 0.31240
C44 C 0.7361(19) 0.3793(16) 0.5456(10)
H34 H 0.66540 0.37560 0.54880
C45 C 0.471(2) 0.1451(18) 0.6315(12)
H35 H 0.42470 0.13190 0.66060
C46 C 0.8927(16) -0.0485(14) 0.4582(9)
H36 H 0.93250 -0.09780 0.45090
C47 C 0.0186(18) 0.8006(17) -0.1224(11)
H37 H -0.01060 0.76560 -0.16060
C48 C 0.5309(19) 0.6748(16) 0.1738(10)
H38 H 0.46320 0.68920 0.17380
C49 C 0.4371(19) 0.1303(16) 0.5728(11)
H39 H 0.36720 0.11190 0.55970
C50 C 0.8402(16) -0.0415(16) 0.5105(10)
H40 H 0.84350 -0.08640 0.53830
C51 C 0.3132(15) 0.9552(14) 0.2137(9)
H41 H 0.34210 0.98360 0.25380
C52 C 0.3667(16) 0.5578(15) -0.0021(10)
H42 H 0.38570 0.50210 0.01120
C53 C 0.5807(17) 0.6832(16) 0.1211(11)
H43 H 0.54590 0.69950 0.08460
C54 C 0.2945(14) 0.6022(13) 0.0264(9)
H44 H 0.26360 0.57720 0.05890
C55 C 0.373(3) 0.922(2) 0.1695(14)
H45 H 0.44350 0.94460 0.17360
C56 C 0.015(2) 0.8911(19) -0.1138(12)
H46 H -0.02040 0.91950 -0.14490
C57 C 0.5072(15) 0.1420(14) 0.5278(10)
H47 H 0.48370 0.12810 0.48480
C58 C 0.3310(17) 0.8546(15) 0.1179(10)
H48 H 0.37430 0.82700 0.09110
C59 C 0.3160(16) 0.7250(15) -0.0402(9)
H49 H 0.29940 0.78190 -0.05280
C60 C 1.0645(16) 0.7804(14) 0.3076(9)
H50 H 1.12580 0.81850 0.30590
C61 C 0.8822(15) 0.7670(13) 0.3089(9)
H51 H 0.82090 0.79430 0.31030
C62 C 0.8804(13) 0.6704(12) 0.3057(8)
C63 C 1.0678(18) 0.6820(16) 0.3074(10)
H52 H 1.12920 0.65450 0.30880
C64 C 0.5802(15) 0.6454(13) 0.2267(9)
H53 H 0.54380 0.63360 0.26060
C65 C 0.7808(13) 0.3012(12) 0.5197(8)
C66 C 0.6408(19) 0.1924(16) 0.6092(11)
H54 H 0.71010 0.21410 0.62210
C67 C 0.575(2) 0.181(2) 0.6551(14)
H55 H 0.59720 0.19540 0.69820
C68 C 0.8851(13) 0.3089(12) 0.5140(7)
H56 H 0.91490 0.25750 0.49640
C69 C 0.9435(15) 0.3922(13) 0.5344(8)
H57 H 1.01330 0.39800 0.52890
C70 C 0.9035(14) 0.4680(13) 0.5626(8)
H58 H 0.94650 0.52290 0.57920
C71 C 0.2091(15) 0.9448(14) 0.1964(9)
H59 H 0.16790 0.98580 0.21580
C72 C 0.8010(17) 0.4627(16) 0.5663(10)
H60 H 0.77300 0.51580 0.58300
C73 C 0.673(5) 0.826(5) 0.947(3)
H61 H 0.69790 0.84290 0.90810
H62 H 0.63720 0.76290 0.93800
Cl10 Cl 0.7794(18) 0.8274(16) 1.0038(11)
Cl11 Cl 0.593(2) 0.898(2) 0.9686(14)
C74 C 0.773(6) 0.988(6) 0.186(4)
H63 H 0.79880 0.94820 0.15250
H64 H 0.83040 1.02600 0.21230
Cl12 Cl 0.6688(14) 1.0674(13) 0.1505(8)
Cl13 Cl 0.7008(16) 0.9258(15) 0.2272(10)
#END

data_CSD_CIF_ROJKUW
_audit_creation_date 2001-11-22
_audit_creation_method CSD-ConQuest-V1
_database_code_CSD ROJKUW
_database_code_depnum_ccdc_archive 'CCDC 156413'
_chemical_formula_sum 'C54 H52 Bi2 Cl8 O2 P2'
_chemical_formula_moiety
;
2(C24 H20 P1 1+),C6 H12 Bi2 Cl8 O2 2-
;
_journal_coden_Cambridge 29
_journal_volume 627
_journal_year 2001
_journal_page_first 2057
_journal_name_full 'Z.Anorg.Allg.Chem. '
loop_
_publ_author_name
"I.A.Ahmed"
"R.Blachnik"
"H.Reuter"
_chemical_name_systematic
;
bis(Tetraphenylphosphonium) 
bis(\m~2~-chloro)-bis(acetone)-hexachloro-di-bismuth(iii)
;
_chemical_melting_point 488.95
_cell_volume   2894.850
_exptl_crystal_colour 'colorless'
_exptl_crystal_density_diffrn 1.717
_exptl_crystal_description 'block'
_exptl_crystal_preparation 'acetone/n-hexane'
_diffrn_ambient_temperature 293
#These two values have been output from a single CSD field.
_refine_ls_R_factor_gt 0.0443
_refine_ls_wR_factor_gt 0.0443
_symmetry_cell_setting monoclinic
_symmetry_space_group_name_H-M 'P 21/n'
_symmetry_Int_Tables_number 14
loop_
_symmetry_equiv_pos_site_id
_symmetry_equiv_pos_as_xyz
1 x,y,z
2 1/2+x,1/2-y,1/2+z
3 -x,-y,-z
4 -1/2-x,-1/2+y,-1/2-z
_cell_length_a 14.045(5)
_cell_length_b 12.921(4)
_cell_length_c 17.098(3)
_cell_angle_alpha 90
_cell_angle_beta 111.099(19)
_cell_angle_gamma 90
_cell_formula_units_Z 2
loop_
_atom_type_symbol
_atom_type_radius_bond
C 0.68
H 0.23
Bi 1.64
Cl 0.99
O 0.68
P 1.05
loop_
_atom_site_label
_atom_site_type_symbol
_atom_site_fract_x
_atom_site_fract_y
_atom_site_fract_z
Bi1 Bi 0.850951(19) 0.06035(2) -0.028801(16)
Cl1 Cl 1.00450(18) -0.0383(2) 0.10852(13)
Cl2 Cl 0.7401(2) 0.0976(2) 0.05951(18)
Cl3 Cl 0.7750(2) -0.1153(2) -0.07624(18)
Cl4 Cl 0.7287(2) 0.1497(2) -0.15936(16)
O1 O 0.9435(6) 0.2435(6) 0.0309(5)
C1 C 0.9962(8) 0.2778(8) 0.1000(6)
C2 C 1.0647(12) 0.3651(13) 0.1062(10)
H1 H 1.05360 0.39160 0.05120
H2 H 1.13420 0.34240 0.13170
H3 H 1.05140 0.41850 0.13990
C3 C 0.9905(13) 0.2368(14) 0.176(1)
H4 H 0.92100 0.23860 0.17310
H5 H 1.03220 0.27770 0.22260
H6 H 1.01450 0.16660 0.18310
P1 P 0.72231(14) 0.56890(15) 0.08940(12)
C4 C 0.8559(6) 0.5948(6) 0.1435(5)
C5 C 0.6435(6) 0.6783(7) 0.0885(5)
C6 C 0.9103(7) 0.5476(7) 0.2192(5)
H7 H 0.87770 0.50200 0.24350
C7 C 0.6843(6) 0.4650(6) 0.1421(5)
C8 C 0.7070(6) 0.5352(6) -0.0158(4)
C9 C 1.0071(6) 0.6815(8) 0.1469(6)
H8 H 1.03960 0.72730 0.12270
C10 C 0.6593(7) 0.3701(7) 0.1053(6)
H9 H 0.66540 0.35680 0.05380
C11 C 0.9052(7) 0.6596(7) 0.1075(5)
H10 H 0.86940 0.68920 0.05570
C12 C 1.0123(8) 0.5682(9) 0.2584(7)
H11 H 1.04870 0.53670 0.30930
C13 C 0.6248(8) 0.2938(8) 0.1453(7)
H12 H 0.60680 0.22900 0.12080
C14 C 0.6774(7) 0.4855(8) 0.2182(6)
H13 H 0.69380 0.55100 0.24180
C15 C 0.5162(8) 0.8438(9) 0.0807(8)
H14 H 0.47350 0.89980 0.07800
C16 C 0.6413(7) 0.5882(8) -0.0826(5)
H15 H 0.60260 0.64290 -0.07490
C17 C 0.7672(7) 0.4560(8) -0.0270(6)
H16 H 0.81320 0.42170 0.01890
C18 C 0.5503(7) 0.6623(8) 0.0979(6)
H17 H 0.53040 0.59620 0.10700
C19 C 1.0608(7) 0.6349(9) 0.2228(6)
H18 H 1.12990 0.64880 0.24960
C20 C 0.4876(8) 0.747(1) 0.0935(7)
H19 H 0.42490 0.73700 0.09940
C21 C 0.7575(9) 0.4284(8) -0.1084(7)
H20 H 0.79680 0.37490 -0.11720
C22 C 0.6915(8) 0.4793(10) -0.1742(6)
H21 H 0.68510 0.46040 -0.22830
C23 C 0.6173(9) 0.3152(9) 0.2230(7)
H22 H 0.59250 0.26500 0.24980
C24 C 0.6464(8) 0.4102(9) 0.2598(6)
H23 H 0.64500 0.42330 0.31290
C25 C 0.6340(9) 0.5578(11) -0.1626(6)
H24 H 0.58880 0.59210 -0.20900
C26 C 0.6725(8) 0.7763(8) 0.0752(8)
H25 H 0.73450 0.78730 0.06840
C27 C 0.6080(9) 0.8586(9) 0.072(1)
H26 H 0.62770 0.92520 0.06370
Bi1B Bi 1.149049(19) -0.06035(2) 0.028801(16)
Cl1B Cl 0.99550(18) 0.0383(2) -0.10852(13)
Cl2B Cl 1.2599(2) -0.0976(2) -0.05951(18)
Cl3B Cl 1.2250(2) 0.1153(2) 0.07624(18)
Cl4B Cl 1.2713(2) -0.1497(2) 0.15936(16)
O1B O 1.0565(6) -0.2435(6) -0.0309(5)
C1B C 1.0038(8) -0.2778(8) -0.1000(6)
C2B C 0.9353(12) -0.3651(13) -0.1062(10)
H1B H 0.94640 -0.39160 -0.05120
H2B H 0.86580 -0.34240 -0.13170
H3B H 0.94860 -0.41850 -0.13990
C3B C 1.0095(13) -0.2368(14) -0.176(1)
H4B H 1.07900 -0.23860 -0.17310
H5B H 0.96780 -0.27770 -0.22260
H6B H 0.98550 -0.16660 -0.18310
#END

data_CSD_CIF_ROJMEI
_audit_creation_date 2001-11-22
_audit_creation_method CSD-ConQuest-V1
_database_code_CSD ROJMEI
_chemical_formula_sum 'C102 H89 Bi4 Cl16 N3 P4'
_chemical_formula_moiety
;
4(C24 H20 P1 1+),Bi4 Cl16 4-,3(C2 H3 N1)
;
_journal_coden_Cambridge 29
_journal_volume 627
_journal_year 2001
_journal_page_first 2057
_journal_name_full 'Z.Anorg.Allg.Chem. '
loop_
_publ_author_name
"I.A.Ahmed"
"R.Blachnik"
"H.Reuter"
_chemical_name_systematic
;
tetrakis(Tetraphenylphosphonium) 
bis(\m~3~-chloro)-tetrakis(\m~2~-chloro)-decachloro-tetra-bismuth 
acetonitrile solvate
;
_chemical_melting_point 489.55
_cell_volume   5486.037
_exptl_crystal_colour 'colorless'
_exptl_crystal_description 'block'
_diffrn_ambient_temperature 293
#These two values have been output from a single CSD field.
_refine_ls_R_factor_gt 0.08
_refine_ls_wR_factor_gt 0.08
_symmetry_cell_setting triclinic
_symmetry_space_group_name_H-M 'P -1'
_symmetry_Int_Tables_number 2
_cell_length_a 14.245(9)
_cell_length_b 17.318(6)
_cell_length_c 24.475(8)
_cell_angle_alpha 104.66(3)
_cell_angle_beta 95.93(3)
_cell_angle_gamma 106.90(4)
_cell_formula_units_Z 2
#END

data_CSD_CIF_ROKBIC
_audit_creation_date 2001-11-22
_audit_creation_method CSD-ConQuest-V1
_database_code_CSD ROKBIC
_chemical_formula_sum 'C75 H66 Bi2 Cl9 O1 P3'
_chemical_formula_moiety
;
3(C24 H20 P1 1+),Bi2 Cl9 3-,C3 H6 O1
;
_journal_coden_Cambridge 29
_journal_volume 627
_journal_year 2001
_journal_page_first 2057
_journal_name_full 'Z.Anorg.Allg.Chem. '
loop_
_publ_author_name
"I.A.Ahmed"
"R.Blachnik"
"H.Reuter"
_chemical_name_systematic
;
tris(Tetraphenylphosphonium) tris(\m~2~-chloro)-hexachloro-di-bismuth acetone 
solvate
;
_cell_volume   7316.146
_exptl_special_details
;
isotypic with the bromo analogue

;
_diffrn_ambient_temperature 293
_symmetry_cell_setting monoclinic
_symmetry_space_group_name_H-M 'P 21/n'
_symmetry_Int_Tables_number 14
_cell_length_a 19.64(2)
_cell_length_b 31.36(7)
_cell_length_c 12.03(2)
_cell_angle_alpha 90
_cell_angle_beta 99.10(9)
_cell_angle_gamma 90
_cell_formula_units_Z 4
#END

data_CSD_CIF_VALYEO
_audit_creation_date 2012-05-22
_audit_creation_method CSD-ConQuest-V1
_database_code_CSD VALYEO
_database_code_depnum_ccdc_archive 'CCDC 793650'
_chemical_formula_sum 'C46 H86 Co3 O12'
_chemical_formula_moiety
;
C46 H86 Co3 O12
;
_journal_coden_Cambridge 29
_journal_year 2011
_journal_page_first 2175
_journal_name_full 'Z.Anorg.Allg.Chem. '
loop_
_publ_author_name
"M.A.K.Ahmed"
"H.Fjellvag"
"A.Kjekshus"
"P.D.C.Dietzel"
"D.S.Wragg"
_chemical_name_systematic
;
(\m~3~-ethoxo)-(\m~2~-pivalato)-tris(\m~2~-ethoxo)-tris(2,2,6,6-tetramethylhep
tane-3,5-dionato)-tri-cobalt(ii)
;
_cell_volume  10709.486
_exptl_crystal_colour 'dark yellow'
_exptl_crystal_density_diffrn 1.25
_exptl_crystal_description 'needle'
_diffrn_ambient_temperature 150
#These two values have been output from a single CSD field.
_refine_ls_R_factor_gt 0.1559
_refine_ls_wR_factor_gt 0.1559
_symmetry_cell_setting monoclinic
_symmetry_space_group_name_H-M 'P 21/c'
_symmetry_Int_Tables_number 14
loop_
_symmetry_equiv_pos_site_id
_symmetry_equiv_pos_as_xyz
1 x,y,z
2 -x,1/2+y,1/2-z
3 -x,-y,-z
4 x,-1/2-y,-1/2+z
_cell_length_a 9.811(4)
_cell_length_b 22.528(8)
_cell_length_c 49.158(17)
_cell_angle_alpha 90
_cell_angle_beta 99.706(7)
_cell_angle_gamma 90
_cell_formula_units_Z 8
loop_
_atom_type_symbol
_atom_type_radius_bond
C 0.68
H 0.23
Co 1.23
O 0.68
loop_
_atom_site_label
_atom_site_type_symbol
_atom_site_fract_x
_atom_site_fract_y
_atom_site_fract_z
Co1 Co 0.41248(17) 0.24642(7) 0.19936(3)
C1 C 0.6695(18) 0.3209(9) 0.2411(4)
H1 H 0.70570 0.30490 0.22570
H2 H 0.74350 0.33780 0.25400
H3 H 0.60270 0.35120 0.23470
Co2 Co 0.36253(15) 0.20068(6) 0.25503(3)
Co3 Co 0.14203(15) 0.72564(6) -0.00007(3)
C2 C 0.0019(18) 0.1969(9) 0.2253(4)
H4 H 0.04180 0.16410 0.23630
H5 H -0.06880 0.18260 0.21080
H6 H -0.03770 0.22430 0.23670
Co4 Co 0.29756(15) 0.12418(7) 0.20784(3)
C3 C 0.261(3) 0.5103(10) 0.0502(3)
H7 H 0.16620 0.50620 0.04180
H8 H 0.30980 0.47410 0.04800
H9 H 0.30270 0.54230 0.04160
Co5 Co 0.12653(18) 0.69752(7) 0.05922(4)
Co6 Co 0.23886(15) 0.81383(6) 0.04108(3)
O1 O 0.1353(9) 0.1187(4) 0.18130(16)
O2 O 0.3678(8) 0.0495(3) 0.19957(16)
O3 O 0.3035(9) 0.3196(4) 0.18936(17)
O4 O 0.5544(9) 0.2733(4) 0.17681(17)
O5 O 0.4881(8) 0.1936(4) 0.28815(15)
O6 O 0.2564(8) 0.2603(3) 0.26796(15)
O7 O 0.2499(8) 0.2016(3) 0.21923(15)
O8 O 0.4507(8) 0.1406(4) 0.23657(15)
C4 C 0.1791(17) 1.0130(6) 0.0233(3)
H10 H 0.27130 1.02440 0.02140
H11 H 0.11780 1.04610 0.01880
H12 H 0.14930 0.98060 0.01100
O9 O 0.3870(9) 0.1666(4) 0.18316(18)
O10 O 0.4711(9) 0.2575(4) 0.23999(16)
C5 C 0.4084(14) 0.7036(6) 0.0386(3)
H13 H 0.39590 0.66130 0.03560
H14 H 0.44790 0.70950 0.05790
O11 O 0.2534(8) 0.1417(4) 0.27007(15)
O12 O 0.2015(8) 0.0825(4) 0.23288(15)
O13 O 0.2300(9) 0.6587(3) -0.01235(16)
C6 C 0.467(2) 0.8189(10) -0.0460(4)
H15 H 0.41710 0.79330 -0.05990
H16 H 0.51580 0.79540 -0.03130
H17 H 0.53090 0.84260 -0.05400
O14 O -0.0008(9) 0.7277(4) -0.03049(19)
O15 O 0.1745(8) 0.8906(3) 0.04656(16)
O16 O 0.4132(8) 0.8258(4) 0.06316(16)
O17 O -0.0130(9) 0.6773(4) 0.08329(19)
O18 O 0.2344(10) 0.6266(4) 0.0726(2)
O19 O 0.3170(8) 0.8449(3) 0.01048(15)
O20 O 0.2449(8) 0.7750(4) -0.02125(16)
O21 O 0.0730(8) 0.7916(3) 0.01708(17)
C7 C -0.0865(18) 0.6028(8) 0.0032(4)
H18 H -0.07650 0.60780 -0.01580
H19 H -0.17110 0.58210 0.00410
H20 H -0.00990 0.58030 0.01260
O22 O 0.2737(8) 0.7319(3) 0.03334(15)
O23 O 0.1645(9) 0.7804(4) 0.07093(16)
O24 O 0.0437(9) 0.6771(4) 0.0209(2)
C8 C 0.2721(15) 0.4232(6) 0.1864(3)
C9 C 0.3559(12) 0.3680(5) 0.1813(2)
C10 C 0.4752(13) 0.3706(6) 0.1692(3)
H21 H 0.49800 0.40740 0.16270
C11 C 0.5613(13) 0.3243(6) 0.1662(2)
C12 C 0.6833(15) 0.3303(6) 0.1501(3)
C13 C 0.288(2) 0.4285(10) 0.2180(3)
H22 H 0.31710 0.46810 0.22360
H23 H 0.35660 0.40070 0.22650
H24 H 0.20150 0.42020 0.22370
C14 C 0.3350(19) 0.4803(7) 0.1781(4)
H25 H 0.34930 0.47730 0.15930
H26 H 0.42200 0.48710 0.18990
H27 H 0.27350 0.51270 0.17980
C15 C 0.8149(16) 0.3078(8) 0.1681(3)
H28 H 0.89160 0.31280 0.15850
H29 H 0.80460 0.26660 0.17210
H30 H 0.83150 0.33000 0.18500
C16 C 0.7063(18) 0.3915(7) 0.1396(3)
H31 H 0.80220 0.40190 0.14460
H32 H 0.65100 0.41950 0.14770
H33 H 0.68050 0.39230 0.11990
C17 C 0.1263(17) 0.4167(8) 0.1727(4)
H34 H 0.07030 0.44560 0.18010
H35 H 0.09410 0.37760 0.17610
H36 H 0.12000 0.42270 0.15320
C18 C 0.1452(14) 0.3154(6) 0.2989(2)
C19 C 0.2634(13) 0.2754(5) 0.2934(2)
C20 C 0.3670(13) 0.2548(6) 0.3148(2)
H37 H 0.36390 0.26750 0.33270
C21 C 0.4709(12) 0.2176(5) 0.3108(2)
C22 C 0.5832(13) 0.1979(6) 0.3356(3)
C23 C 0.7267(15) 0.2116(9) 0.3283(3)
H38 H 0.78590 0.17780 0.33250
H39 H 0.76630 0.24510 0.33890
H40 H 0.71730 0.22060 0.30900
C24 C 0.562(2) 0.1316(7) 0.3399(3)
H41 H 0.47260 0.12530 0.34490
H42 H 0.63220 0.11730 0.35440
H43 H 0.56760 0.11060 0.32320
C25 C 0.0232(14) 0.2751(7) 0.2994(4)
H44 H 0.05270 0.24050 0.31020
H45 H -0.01510 0.26350 0.28090
H46 H -0.04570 0.29580 0.30750
C26 C 0.1792(18) 0.3481(8) 0.3265(3)
H47 H 0.14790 0.38850 0.32420
H48 H 0.27740 0.34760 0.33270
H49 H 0.13370 0.32880 0.33990
C27 C 0.1080(19) 0.3624(7) 0.2760(3)
H50 H 0.04260 0.34590 0.26120
H51 H 0.19010 0.37410 0.26920
H52 H 0.06810 0.39640 0.28340
C28 C -0.0554(14) 0.0750(6) 0.1524(3)
C29 C 0.0868(13) 0.0697(6) 0.1696(2)
C30 C 0.1602(15) 0.0172(6) 0.1728(3)
H53 H 0.11430 -0.01630 0.16490
C31 C 0.2939(14) 0.0087(6) 0.1865(2)
C32 C 0.3656(16) -0.0509(6) 0.1862(3)
C33 C 0.428(3) -0.0556(10) 0.1610(6)
H54 H 0.52650 -0.05100 0.16570
H55 H 0.39100 -0.02520 0.14820
H56 H 0.40720 -0.09390 0.15270
C34 C 0.472(2) -0.0589(8) 0.2129(5)
H57 H 0.45330 -0.09530 0.22180
H58 H 0.46470 -0.02620 0.22510
H59 H 0.56340 -0.06020 0.20850
C35 C 0.2671(18) -0.1023(7) 0.1856(4)
H60 H 0.31860 -0.13850 0.18910
H61 H 0.20890 -0.10430 0.16790
H62 H 0.21090 -0.09670 0.19970
C36 C -0.103(2) 0.1390(8) 0.1479(4)
H63 H -0.08050 0.16050 0.16500
H64 H -0.20130 0.13990 0.14180
H65 H -0.05740 0.15700 0.13420
C37 C -0.1545(19) 0.0399(11) 0.1681(5)
H66 H -0.17750 0.00260 0.15910
H67 H -0.23730 0.06250 0.16820
H68 H -0.10970 0.03300 0.18680
C38 C 0.2021(11) 0.0967(5) 0.2579(2)
C39 C 0.2505(19) 0.0227(9) 0.2953(4)
H69 H 0.28470 -0.01110 0.28660
H70 H 0.21560 0.01010 0.31150
H71 H 0.32410 0.05060 0.30040
C40 C 0.1356(13) 0.0516(6) 0.2754(3)
C41 C 0.0408(18) 0.0847(7) 0.2918(3)
H72 H 0.05790 0.07130 0.31060
H73 H -0.05380 0.07700 0.28390
H74 H 0.05870 0.12650 0.29120
C42 C 0.051(2) 0.0064(8) 0.2561(3)
H75 H 0.09870 -0.03110 0.25770
H76 H 0.04130 0.02020 0.23740
H77 H -0.03820 0.00170 0.26120
C43 C 0.5296(14) 0.0942(6) 0.2516(3)
H78 H 0.47930 0.05710 0.24900
H79 H 0.54650 0.10350 0.27120
C44 C 0.6640(18) 0.0889(9) 0.2412(4)
H80 H 0.67280 0.12110 0.22890
H81 H 0.66640 0.05190 0.23170
H82 H 0.73900 0.09020 0.25650
C45 C 0.1146(14) 0.2283(6) 0.2125(3)
H83 H 0.08730 0.22850 0.19260
H84 H 0.12050 0.26930 0.21860
C46 C 0.6028(14) 0.2733(6) 0.2546(3)
H85 H 0.66200 0.23860 0.25640
H86 H 0.59310 0.28620 0.27300
C47 C 0.4830(14) 0.1403(6) 0.1673(3)
H87 H 0.55650 0.16840 0.16600
H88 H 0.52440 0.10540 0.17690
C48 C 0.4180(18) 0.1237(9) 0.1401(3)
H89 H 0.35410 0.09190 0.14120
H90 H 0.48710 0.11090 0.12970
H91 H 0.36920 0.15720 0.13110
C49 C -0.058(2) 0.0463(9) 0.1244(3)
H92 H 0.02120 0.05870 0.11690
H93 H -0.14080 0.05820 0.11220
H94 H -0.05740 0.00390 0.12640
C50 C 0.5689(17) 0.2298(8) 0.3625(3)
H95 H 0.53740 0.20220 0.37490
H96 H 0.50340 0.26150 0.35860
H97 H 0.65710 0.24550 0.37080
C51 C 0.6555(17) 0.2870(8) 0.1255(3)
H98 H 0.63440 0.30910 0.10860
H99 H 0.57870 0.26190 0.12750
H100 H 0.73610 0.26300 0.12510
C52 C -0.1130(13) 0.7200(6) -0.0771(3)
C53 C 0.0057(13) 0.7020(5) -0.0539(3)
C54 C 0.1075(14) 0.6607(5) -0.0577(2)
H101 H 0.10760 0.64660 -0.07550
C55 C 0.2084(12) 0.6397(5) -0.0367(2)
C56 C 0.3113(15) 0.5916(5) -0.0425(2)
C57 C -0.2506(16) 0.7007(12) -0.0688(4)
H102 H -0.25890 0.65820 -0.07000
H103 H -0.32610 0.71870 -0.08090
H104 H -0.25270 0.71290 -0.05010
C58 C 0.239(2) 0.5431(8) -0.0625(4)
H105 H 0.30320 0.51190 -0.06430
H106 H 0.20690 0.56050 -0.08030
H107 H 0.16140 0.52720 -0.05530
C59 C 0.379(2) 0.5625(8) -0.0169(3)
H108 H 0.42120 0.59210 -0.00410
H109 H 0.44910 0.53570 -0.02100
H110 H 0.31180 0.54080 -0.00880
C60 C -0.101(2) 0.6931(8) -0.1046(3)
H111 H -0.01090 0.70160 -0.10890
H112 H -0.17030 0.70980 -0.11860
H113 H -0.11340 0.65100 -0.10380
C61 C -0.111(3) 0.7890(8) -0.0796(5)
H114 H -0.13960 0.80630 -0.06360
H115 H -0.17340 0.80110 -0.09580
H116 H -0.01920 0.80200 -0.08080
C62 C 0.6174(12) 0.8762(6) 0.0824(3)
C63 C 0.4656(12) 0.8747(5) 0.0708(2)
C64 C 0.3902(12) 0.9279(5) 0.0682(3)
H117 H 0.43670 0.96200 0.07520
C65 C 0.2541(12) 0.9341(5) 0.0563(2)
C66 C 0.1775(12) 0.9935(5) 0.0533(3)
C67 C 0.2448(17) 1.0406(6) 0.0733(3)
H118 H 0.33410 1.05050 0.06910
H119 H 0.25510 1.02570 0.09180
H120 H 0.18770 1.07550 0.07170
C68 C 0.6933(16) 0.903(1) 0.0606(4)
H121 H 0.67610 0.87920 0.04410
H122 H 0.79080 0.90380 0.06750
H123 H 0.66070 0.94260 0.05640
C69 C 0.6751(15) 0.8139(8) 0.0887(4)
H124 H 0.66570 0.79140 0.07190
H125 H 0.62490 0.79470 0.10140
H126 H 0.77110 0.81650 0.09680
C70 C 0.0258(15) 0.9848(7) 0.0574(4)
H127 H -0.02430 1.02120 0.05320
H128 H 0.02380 0.97370 0.07610
H129 H -0.01620 0.95410 0.04520
C71 C 0.650(2) 0.9167(10) 0.1083(4)
H130 H 0.74790 0.92140 0.11330
H131 H 0.61340 0.89890 0.12330
H132 H 0.60760 0.95490 0.10420
C72 C 0.2702(14) 0.5233(6) 0.0803(2)
C73 C 0.1860(15) 0.5814(6) 0.0830(2)
C74 C 0.0697(13) 0.5817(5) 0.0953(2)
H133 H 0.05070 0.54720 0.10440
C75 C -0.0232(12) 0.6294(5) 0.0954(2)
C76 C -0.1473(13) 0.6251(6) 0.1112(3)
C77 C -0.2753(14) 0.6386(7) 0.0912(3)
H134 H -0.28920 0.60870 0.07710
H135 H -0.26600 0.67670 0.08290
H136 H -0.35300 0.63930 0.10070
C78 C 0.4156(18) 0.5325(9) 0.0943(5)
H137 H 0.46660 0.55240 0.08200
H138 H 0.45770 0.49470 0.09940
H139 H 0.41630 0.55620 0.11050
C79 C 0.2133(17) 0.4691(6) 0.0931(4)
H140 H 0.23230 0.47240 0.11280
H141 H 0.25650 0.43390 0.08750
H142 H 0.11520 0.46670 0.08700
C80 C -0.1243(15) 0.6739(6) 0.1334(3)
H143 H -0.20250 0.67540 0.14280
H144 H -0.11370 0.71150 0.12480
H145 H -0.04240 0.66520 0.14640
C81 C -0.1629(15) 0.5647(6) 0.1250(3)
H146 H -0.24390 0.56530 0.13360
H147 H -0.08280 0.55730 0.13870
H148 H -0.17170 0.53390 0.11130
C82 C 0.3038(11) 0.8236(5) -0.0135(2)
C83 C 0.3677(14) 0.8581(7) -0.0351(3)
C84 C 0.253(2) 0.8714(14) -0.0587(5)
H149 H 0.19060 0.83830 -0.06140
H150 H 0.29160 0.87790 -0.07510
H151 H 0.20450 0.90620 -0.05450
C85 C -0.0143(14) 0.8339(6) 0.0017(3)
H152 H 0.00470 0.83510 -0.01700
H153 H 0.00560 0.87280 0.00990
C86 C -0.0895(14) 0.6592(6) 0.0158(3)
H154 H -0.14570 0.68690 0.00360
H155 H -0.12670 0.65620 0.03290
C87 C 0.0632(14) 0.8120(6) 0.0832(3)
H156 H -0.00200 0.78380 0.08860
H157 H 0.01230 0.83840 0.06950
C88 C 0.1256(19) 0.8475(9) 0.1078(3)
H158 H 0.15950 0.82120 0.12280
H159 H 0.05670 0.87330 0.11310
H160 H 0.20070 0.87090 0.10340
C89 C 0.5126(18) 0.7260(9) 0.0208(3)
H161 H 0.47490 0.72060 0.00160
H162 H 0.59720 0.70400 0.02520
H163 H 0.53080 0.76740 0.02440
C90 C 0.451(2) 0.9121(8) -0.0223(4)
H164 H 0.54580 0.90110 -0.01680
H165 H 0.41380 0.92540 -0.00650
H166 H 0.44390 0.94350 -0.03570
C91 C -0.1670(18) 0.8196(9) 0.0010(4)
H167 H -0.22260 0.85150 -0.00780
H168 H -0.18460 0.81480 0.01950
H169 H -0.19000 0.78360 -0.00910
C92 C 0.4228(18) 0.6232(8) -0.0564(3)
H170 H 0.48060 0.64720 -0.04300
H171 H 0.37820 0.64790 -0.07120
H172 H 0.47830 0.59400 -0.06370
#END
